-------------------------------------------------------
          Amber 20 PMEMD                              2020
          -------------------------------------------------------

  [-O]verwriting output

File Assignments:

 Here is the input file:

 &cntrl
   nstlim=1000000, nscm=1000,
   ntx=1, irest=0, ntpr=1000,
   tempi=300.0, temp0=300.0, ntt=3, gamma_ln=2.0,
   ntb=1, igb=0, cut=10.0,
   dt=0.001, ig=-1,
   ntc=1, ntf=1,
   iwrap=0,
   ntwr=1000, ntwx=50000, ntave=1000,
   ioutfm=1, ntwv=-1,
   ifsc = 1, icfe=1,
   clambda=0.88495,
   timask1=':1',
   timask2=':2',
/

Note: ig = -1. Setting random seed to   388808 based on wallclock time in
      microseconds.

--------------------------------------------------------------------------------
   1.  RESOURCE   USE:
--------------------------------------------------------------------------------

 getting box info from netcdf restart file
 NATOM  =      10 NTYPES =       6 NBONH =       0 MBONA  =       8
 NTHETH =       0 MTHETA =      12 NPHIH =       0 MPHIA  =       0
 NHPARM =       0 NPARM  =       0 NNB   =      22 NRES   =       2
 NBONA  =       8 NTHETA =      12 NPHIA =       0 NUMBND =       1
 NUMANG =       1 NPTRA  =       0 NATYP =       4 NPHB   =       1
 IFBOX  =       2 NMXRS  =       5 IFCAP =       0 NEXTRA =       0
 NCOPY  =       0

     BOX TYPE: TRUNCATED OCTAHEDRON

--------------------------------------------------------------------------------
   2.  CONTROL  DATA  FOR  THE  RUN
--------------------------------------------------------------------------------

default_name

General flags:
     imin    =       0, nmropt  =       0

Nature and format of input:
     ntx     =       1, irest   =       0, ntrx    =       1

Nature and format of output:
     ntxo    =       2, ntpr    =    1000, ntrx    =       1, ntwr    =    1000
     iwrap   =       0, ntwx    =   50000, ntwv    =      -1, ntwe    =       0
     ioutfm  =       1, ntwprt  =       0, idecomp =       0, rbornstat=      0

Potential function:
     ntf     =       1, ntb     =       1, igb     =       0, nsnb    =      25
     ipol    =       0, gbsa    =       0, iesp    =       0
     dielc   =   1.00000, cut     =  10.00000, intdiel =   1.00000

Frozen or restrained atoms:
     ibelly  =       0, ntr     =       0

Molecular dynamics:
     nstlim  =   1000000, nscm    =      1000, nrespa  =         1
     t       =   0.00000, dt      =   0.00100, vlimit  =  -1.00000

Langevin dynamics temperature regulation:
     ig      =  388808
     temp0   = 300.00000, tempi   = 300.00000, gamma_ln=   2.00000

Free energy options:
     icfe    =       1, ifsc    =       1, klambda =       1
     clambda =  0.8850, scalpha =  0.5000, scbeta  = 12.0000
     sceeorder =       2
     dynlmb =  0.0000 logdvdl =       0

Ewald parameters:
     verbose =       0, ew_type =       0, nbflag  =       1, use_pme =       1
     vdwmeth =       1, eedmeth =       1, netfrc  =       1
     Box X =   55.004   Box Y =   55.004   Box Z =   55.004
     Alpha =  109.471   Beta  =  109.471   Gamma =  109.471
     NFFT1 =   56       NFFT2 =   56       NFFT3 =   56
     Cutoff=   10.000   Tol   =0.100E-04
     Ewald Coefficient =  0.27511
     Interpolation order =    4
     TI Mask 1 :1; matches      5 atoms
     TI Mask 2 :2; matches      5 atoms
     TI region 1:       5 atoms
     TI region 2:       5 atoms

--------------------------------------------------------------------------------
   3.  ATOMIC COORDINATES AND VELOCITIES
--------------------------------------------------------------------------------

default_name
 begin time read from input coords =     0.000 ps

 Number of triangulated 3-point waters found:        0
 Number of shake restraints removed in TI region  1 :        0
 Number of shake restraints removed in TI region  2 :        0

     Sum of charges for TI region  1 =  -2.99999999
     Skip neutralizing charges...

     Sum of charges for TI region  2 =   0.00000000
     Skip neutralizing charges...

--------------------------------------------------------------------------------
   4.  RESULTS
 NSTEP =        0   TIME(PS) =       0.000  TEMP(K) =   452.17  PRESS =     0.0
 Etot   =         3.1658  EKtot   =         6.7390  EPtot      =        -3.5732
 BOND   =         0.0000  ANGLE   =         6.2592  DIHED      =         0.0000
 1-4 NB =         0.0000  1-4 EEL =         0.0000  VDWAALS    =        -0.0000
 EELEC  =        -9.8324  EHBOND  =         0.0000  RESTRAINT  =         0.0000
 DV/DL  =        85.4622
 ------------------------------------------------------------------------------

      A V E R A G E S   O V E R    1000 S T E P S

 NSTEP =     1000   TIME(PS) =       1.000  TEMP(K) =   172.33  PRESS =     0.0
 Etot   =         0.7146  EKtot   =         2.5683  EPtot      =        -1.8537
 BOND   =         0.6308  ANGLE   =         7.3478  DIHED      =         0.0000
 1-4 NB =         0.0000  1-4 EEL =         0.0000  VDWAALS    =        -0.0000
 EELEC  =        -9.8322  EHBOND  =         0.0000  RESTRAINT  =         0.0000
 DV/DL  =        85.4604
 ------------------------------------------------------------------------------

      R M S  F L U C T U A T I O N S

 NSTEP =     1000   TIME(PS) =       1.000  TEMP(K) =    58.26  PRESS =     0.0
 Etot   =         0.5835  EKtot   =         0.8683  EPtot      =         0.5989
 BOND   =         0.3661  ANGLE   =         0.5362  DIHED      =         0.0000
 1-4 NB =         0.0000  1-4 EEL =         0.0000  VDWAALS    =         0.0000
 EELEC  =         0.0009  EHBOND  =         0.0000  RESTRAINT  =         0.0000
 DV/DL  =         0.0194
 ------------------------------------------------------------------------------

      A V E R A G E S   O V E R    1000 S T E P S

 NSTEP =     1000   TIME(PS) =       1.000  TEMP(K) =   172.78  PRESS =     0.0
 Etot   =         0.7214  EKtot   =         2.5751  EPtot      =        -1.8537
 BOND   =         0.6308  ANGLE   =         7.3478  DIHED      =         0.0000
 1-4 NB =         0.0000  1-4 EEL =         0.0000  VDWAALS    =        -0.0000
 EELEC  =        -9.8322  EHBOND  =         0.0000  RESTRAINT  =         0.0000
 DV/DL  =        85.4604
 ------------------------------------------------------------------------------

      R M S  F L U C T U A T I O N S

 NSTEP =     1000   TIME(PS) =       1.000  TEMP(K) =    58.52  PRESS =     0.0
 Etot   =         0.5870  EKtot   =         0.8722  EPtot      =         0.5989
 BOND   =         0.3661  ANGLE   =         0.5362  DIHED      =         0.0000
 1-4 NB =         0.0000  1-4 EEL =         0.0000  VDWAALS    =         0.0000
 EELEC  =         0.0009  EHBOND  =         0.0000  RESTRAINT  =         0.0000
 DV/DL  =         0.0194
 ------------------------------------------------------------------------------

      DV/DL, AVERAGES OVER    1000 STEPS

 NSTEP =     1000   TIME(PS) =       1.000  TEMP(K) =    58.52  PRESS =     0.0
 Etot   =         0.0000  EKtot   =         0.0000  EPtot      =        85.4604
 BOND   =        -0.0001  ANGLE   =        -0.0002  DIHED      =         0.0000
 1-4 NB =         0.0000  1-4 EEL =         0.0000  VDWAALS    =         0.0003
 EELEC  =        85.4604  EHBOND  =         0.0000  RESTRAINT  =         0.0000
 DV/DL  =        85.4604
 ------------------------------------------------------------------------------

      A V E R A G E S   O V E R    1000 S T E P S

 NSTEP =     2000   TIME(PS) =       2.000  TEMP(K) =   267.63  PRESS =     0.0
 Etot   =         3.1578  EKtot   =         3.9887  EPtot      =        -0.8310
 BOND   =         1.0107  ANGLE   =         7.9907  DIHED      =         0.0000
 1-4 NB =         0.0000  1-4 EEL =         0.0000  VDWAALS    =        -0.0000
 EELEC  =        -9.8323  EHBOND  =         0.0000  RESTRAINT  =         0.0000
 DV/DL  =        85.4602
 ------------------------------------------------------------------------------

      R M S  F L U C T U A T I O N S

 NSTEP =     2000   TIME(PS) =       2.000  TEMP(K) =    68.49  PRESS =     0.0
 Etot   =         1.3030  EKtot   =         1.0208  EPtot      =         1.0767
 BOND   =         0.7206  ANGLE   =         0.7913  DIHED      =         0.0000
 1-4 NB =         0.0000  1-4 EEL =         0.0000  VDWAALS    =         0.0000
 EELEC  =         0.0009  EHBOND  =         0.0000  RESTRAINT  =         0.0000
 DV/DL  =         0.0244
 ------------------------------------------------------------------------------

      A V E R A G E S   O V E R    1000 S T E P S

 NSTEP =     2000   TIME(PS) =       2.000  TEMP(K) =   267.46  PRESS =     0.0
 Etot   =         3.1553  EKtot   =         3.9863  EPtot      =        -0.8310
 BOND   =         1.0107  ANGLE   =         7.9907  DIHED      =         0.0000
 1-4 NB =         0.0000  1-4 EEL =         0.0000  VDWAALS    =        -0.0000
 EELEC  =        -9.8323  EHBOND  =         0.0000  RESTRAINT  =         0.0000
 DV/DL  =        85.4602
 ------------------------------------------------------------------------------

      R M S  F L U C T U A T I O N S

 NSTEP =     2000   TIME(PS) =       2.000  TEMP(K) =    68.51  PRESS =     0.0
 Etot   =         1.3059  EKtot   =         1.0211  EPtot      =         1.0767
 BOND   =         0.7206  ANGLE   =         0.7913  DIHED      =         0.0000
 1-4 NB =         0.0000  1-4 EEL =         0.0000  VDWAALS    =         0.0000
 EELEC  =         0.0009  EHBOND  =         0.0000  RESTRAINT  =         0.0000
 DV/DL  =         0.0244
 ------------------------------------------------------------------------------

      DV/DL, AVERAGES OVER    1000 STEPS

 NSTEP =     2000   TIME(PS) =       2.000  TEMP(K) =    68.51  PRESS =     0.0
 Etot   =         0.0000  EKtot   =         0.0000  EPtot      =        85.4602
 BOND   =        -0.0007  ANGLE   =        -0.0002  DIHED      =         0.0000
 1-4 NB =         0.0000  1-4 EEL =         0.0000  VDWAALS    =         0.0003
 EELEC  =        85.4608  EHBOND  =         0.0000  RESTRAINT  =         0.0000
 DV/DL  =        85.4602
 ------------------------------------------------------------------------------

      A V E R A G E S   O V E R    1000 S T E P S

 NSTEP =  1000000   TIME(PS) =    1000.000  TEMP(K) =   286.71  PRESS =     0.0
 Etot   =         3.9466  EKtot   =         4.2731  EPtot      =        -0.3266
 BOND   =         1.2010  ANGLE   =         8.3046  DIHED      =         0.0000
 1-4 NB =         0.0000  1-4 EEL =         0.0000  VDWAALS    =        -0.0000
 EELEC  =        -9.8322  EHBOND  =         0.0000  RESTRAINT  =         0.0000
 DV/DL  =        85.4612
 ------------------------------------------------------------------------------

      R M S  F L U C T U A T I O N S

 NSTEP =  1000000   TIME(PS) =    1000.000  TEMP(K) =    90.69  PRESS =     0.0
 Etot   =         1.2366  EKtot   =         1.3517  EPtot      =         1.1497
 BOND   =         0.6534  ANGLE   =         0.9626  DIHED      =         0.0000
 1-4 NB =         0.0000  1-4 EEL =         0.0000  VDWAALS    =         0.0000
 EELEC  =         0.0010  EHBOND  =         0.0000  RESTRAINT  =         0.0000
 DV/DL  =         0.0271
 ------------------------------------------------------------------------------

      A V E R A G E S   O V E R    1000 S T E P S

 NSTEP =  1000000   TIME(PS) =    1000.000  TEMP(K) =   286.71  PRESS =     0.0
 Etot   =         3.9465  EKtot   =         4.2730  EPtot      =        -0.3266
 BOND   =         1.2010  ANGLE   =         8.3046  DIHED      =         0.0000
 1-4 NB =         0.0000  1-4 EEL =         0.0000  VDWAALS    =        -0.0000
 EELEC  =        -9.8322  EHBOND  =         0.0000  RESTRAINT  =         0.0000
 DV/DL  =        85.4612
 ------------------------------------------------------------------------------

      R M S  F L U C T U A T I O N S

 NSTEP =  1000000   TIME(PS) =    1000.000  TEMP(K) =    90.68  PRESS =     0.0
 Etot   =         1.2430  EKtot   =         1.3515  EPtot      =         1.1497
 BOND   =         0.6534  ANGLE   =         0.9626  DIHED      =         0.0000
 1-4 NB =         0.0000  1-4 EEL =         0.0000  VDWAALS    =         0.0000
 EELEC  =         0.0010  EHBOND  =         0.0000  RESTRAINT  =         0.0000
 DV/DL  =         0.0271
 ------------------------------------------------------------------------------

      DV/DL, AVERAGES OVER    1000 STEPS

 NSTEP =  1000000   TIME(PS) =    1000.000  TEMP(K) =    90.68  PRESS =     0.0
 Etot   =         0.0000  EKtot   =         0.0000  EPtot      =        85.4612
 BOND   =         0.0010  ANGLE   =        -0.0002  DIHED      =         0.0000
 1-4 NB =         0.0000  1-4 EEL =         0.0000  VDWAALS    =         0.0003
 EELEC  =        85.4601  EHBOND  =         0.0000  RESTRAINT  =         0.0000
 DV/DL  =        85.4612
 ------------------------------------------------------------------------------

      A V E R A G E S   O V E R 1000000 S T E P S

 NSTEP =  1000000   TIME(PS) =    1000.000  TEMP(K) =   306.15  PRESS =     0.0
 Etot   =         3.8007  EKtot   =         4.5628  EPtot      =        -0.7621
 BOND   =         1.3085  ANGLE   =         7.7614  DIHED      =         0.0000
 1-4 NB =         0.0000  1-4 EEL =         0.0000  VDWAALS    =        -0.0000
 EELEC  =        -9.8320  EHBOND  =         0.0000  RESTRAINT  =         0.0000
 DV/DL  =        85.4586
 ------------------------------------------------------------------------------

      R M S  F L U C T U A T I O N S

 NSTEP =  1000000   TIME(PS) =    1000.000  TEMP(K) =   111.27  PRESS =     0.0
 Etot   =         2.1075  EKtot   =         1.6584  EPtot      =         1.3225
 BOND   =         0.9294  ANGLE   =         0.9554  DIHED      =         0.0000
 1-4 NB =         0.0000  1-4 EEL =         0.0000  VDWAALS    =         0.0000
 EELEC  =         0.0013  EHBOND  =         0.0000  RESTRAINT  =         0.0000
 DV/DL  =         0.0280
 ------------------------------------------------------------------------------

      A V E R A G E S   O V E R 1000000 S T E P S

 NSTEP =  1000000   TIME(PS) =    1000.000  TEMP(K) =   306.15  PRESS =     0.0
 Etot   =         3.8008  EKtot   =         4.5629  EPtot      =        -0.7621
 BOND   =         1.3085  ANGLE   =         7.7614  DIHED      =         0.0000
 1-4 NB =         0.0000  1-4 EEL =         0.0000  VDWAALS    =        -0.0000
 EELEC  =        -9.8320  EHBOND  =         0.0000  RESTRAINT  =         0.0000
 DV/DL  =        85.4586
 ------------------------------------------------------------------------------

      R M S  F L U C T U A T I O N S

 NSTEP =  1000000   TIME(PS) =    1000.000  TEMP(K) =   111.28  PRESS =     0.0
 Etot   =         2.1076  EKtot   =         1.6585  EPtot      =         1.3225
 BOND   =         0.9294  ANGLE   =         0.9554  DIHED      =         0.0000
 1-4 NB =         0.0000  1-4 EEL =         0.0000  VDWAALS    =         0.0000
 EELEC  =         0.0013  EHBOND  =         0.0000  RESTRAINT  =         0.0000
 DV/DL  =         0.0280
 ------------------------------------------------------------------------------

      DV/DL, AVERAGES OVER 1000000 STEPS

 NSTEP =  1000000   TIME(PS) =    1000.000  TEMP(K) =   111.28  PRESS =     0.0
 Etot   =         0.0000  EKtot   =         0.0000  EPtot      =        85.4586
 BOND   =        -0.0000  ANGLE   =         0.0000  DIHED      =         0.0000
 1-4 NB =         0.0000  1-4 EEL =         0.0000  VDWAALS    =         0.0003
 EELEC  =        85.4583  EHBOND  =         0.0000  RESTRAINT  =         0.0000
 DV/DL  =        85.4586
 ------------------------------------------------------------------------------
