-------------------------------------------------------
          Amber 20 PMEMD                              2020
          -------------------------------------------------------

  [-O]verwriting output

File Assignments:

 Here is the input file:

 &cntrl
   nstlim=500000, nscm=1000,
   ntx=5, irest=1, ntpr=1000,
   tempi=300.0, temp0=300.0, ntt=3, gamma_ln=2.0,
   ntp=1, pres0=1.01325, taup=5.0,
   ntb=2, igb=0, cut=10.0,
   dt=0.002, ig=-1,
   ntc=2, ntf=2,
   iwrap=0,
   ntwr=1000, ntwx=50000, ntave=1000,
   ioutfm=1, ntwv=-1,
   ifsc = 0, icfe=1,
   clambda=0.11505,
   timask1=':1',
   timask2=':2', crgmask = ':2',
/

Note: ig = -1. Setting random seed to   881465 based on wallclock time in
      microseconds.

--------------------------------------------------------------------------------
   1.  RESOURCE   USE:
--------------------------------------------------------------------------------

 getting box info from netcdf restart file
 NATOM  =   11419 NTYPES =       4 NBONH =   11409 MBONA  =       8
 NTHETH =       0 MTHETA =      12 NPHIH =       0 MPHIA  =       0
 NHPARM =       0 NPARM  =       0 NNB   =   15234 NRES   =    3805
 NBONA  =       8 NTHETA =      12 NPHIA =       0 NUMBND =       3
 NUMANG =       1 NPTRA  =       0 NATYP =       4 NPHB   =       1
 IFBOX  =       2 NMXRS  =       5 IFCAP =       0 NEXTRA =       0
 NCOPY  =       0

     BOX TYPE: TRUNCATED OCTAHEDRON

--------------------------------------------------------------------------------
   2.  CONTROL  DATA  FOR  THE  RUN
--------------------------------------------------------------------------------

default_name

General flags:
     imin    =       0, nmropt  =       0

Nature and format of input:
     ntx     =       5, irest   =       1, ntrx    =       1

Nature and format of output:
     ntxo    =       2, ntpr    =    1000, ntrx    =       1, ntwr    =    1000
     iwrap   =       0, ntwx    =   50000, ntwv    =      -1, ntwe    =       0
     ioutfm  =       1, ntwprt  =       0, idecomp =       0, rbornstat=      0

Potential function:
     ntf     =       2, ntb     =       2, igb     =       0, nsnb    =      25
     ipol    =       0, gbsa    =       0, iesp    =       0
     dielc   =   1.00000, cut     =  10.00000, intdiel =   1.00000

Frozen or restrained atoms:
     ibelly  =       0, ntr     =       0

Molecular dynamics:
     nstlim  =    500000, nscm    =      1000, nrespa  =         1
     t       =   0.00000, dt      =   0.00200, vlimit  =  -1.00000

Langevin dynamics temperature regulation:
     ig      =  881465
     temp0   = 300.00000, tempi   = 300.00000, gamma_ln=   2.00000

Pressure regulation:
     ntp     =       1
     pres0   =   1.01325, comp    =  44.60000, taup    =   5.00000

SHAKE:
     ntc     =       2, jfastw  =       0
     tol     =   0.00001

Free energy options:
     icfe    =       1, ifsc    =       0, klambda =       1
     clambda =  0.1150, scalpha =  0.5000, scbeta  = 12.0000
     sceeorder =       2
     dynlmb =  0.0000 logdvdl =       0

Ewald parameters:
     verbose =       0, ew_type =       0, nbflag  =       1, use_pme =       1
     vdwmeth =       1, eedmeth =       1, netfrc  =       1
     Box X =   55.004   Box Y =   55.004   Box Z =   55.004
     Alpha =  109.471   Beta  =  109.471   Gamma =  109.471
     NFFT1 =   56       NFFT2 =   56       NFFT3 =   56
     Cutoff=   10.000   Tol   =0.100E-04
     Ewald Coefficient =  0.27511
     Interpolation order =    4
     TI Mask 1 :1; matches      5 atoms
     TI Mask 2 :2; matches      5 atoms
     TI region 1:   11414 atoms
     TI region 2:   11414 atoms
Removing charge of       1.4352 from atom       6
Removing charge of      -1.1088 from atom       7
Removing charge of      -1.1088 from atom       8
Removing charge of      -1.1088 from atom       9
Removing charge of      -1.1088 from atom      10
Total charge of  -2.99999999 removed from       5 atoms
     Checking for mismatched coordinates.

--------------------------------------------------------------------------------
   3.  ATOMIC COORDINATES AND VELOCITIES
--------------------------------------------------------------------------------

default_name
 begin time read from input coords =   200.000 ps

 Number of triangulated 3-point waters found:     3803

     Sum of charges for TI region  1 =  -2.99999999
     Skip neutralizing charges...

     Sum of charges for TI region  2 =   0.00000000
     Skip neutralizing charges...

--------------------------------------------------------------------------------
   4.  RESULTS
 NSTEP =     1000   TIME(PS) =     202.000  TEMP(K) =   301.88  PRESS =  -798.5
 Etot   =    -29448.6039  EKtot   =      6848.7303  EPtot      =    -36297.3342
 BOND   =         0.3580  ANGLE   =         7.8125  DIHED      =         0.0000
 1-4 NB =         0.0000  1-4 EEL =         0.0000  VDWAALS    =      5282.4149
 EELEC  =    -41587.9196  EHBOND  =         0.0000  RESTRAINT  =         0.0000
 EKCMT  =      3419.3874  VIRIAL  =      5598.8104  VOLUME     =    126404.5930
                                                    Density    =         0.9013
 DV/DL  =      1040.1839
 ------------------------------------------------------------------------------

      A V E R A G E S   O V E R    1000 S T E P S

 NSTEP =     1000   TIME(PS) =     202.000  TEMP(K) =   300.31  PRESS =  -747.9
 Etot   =    -29368.6097  EKtot   =      6813.0559  EPtot      =    -36181.6656
 BOND   =         2.2221  ANGLE   =         7.8875  DIHED      =         0.0000
 1-4 NB =         0.0000  1-4 EEL =         0.0000  VDWAALS    =      5282.9191
 EELEC  =    -41474.6943  EHBOND  =         0.0000  RESTRAINT  =         0.0000
 EKCMT  =      3433.5228  VIRIAL  =      5488.3508  VOLUME     =    127237.2343
                                                    Density    =         0.8954
 DV/DL  =      1058.3270
 ------------------------------------------------------------------------------

      R M S  F L U C T U A T I O N S

 NSTEP =     1000   TIME(PS) =     202.000  TEMP(K) =     2.89  PRESS =   139.2
 Etot   =        99.6140  EKtot   =        65.6616  EPtot      =        82.9158
 BOND   =         1.4331  ANGLE   =         1.1573  DIHED      =         0.0000
 1-4 NB =         0.0000  1-4 EEL =         0.0000  VDWAALS    =        82.5246
 EELEC  =       137.6018  EHBOND  =         0.0000  RESTRAINT  =         0.0000
 EKCMT  =        48.3664  VIRIAL  =       383.0269  VOLUME     =       482.6080
                                                    Density    =         0.0034
 DV/DL  =        25.4327
 ------------------------------------------------------------------------------

      A V E R A G E S   O V E R    1000 S T E P S

 NSTEP =     1000   TIME(PS) =     202.000  TEMP(K) =   300.31  PRESS =  -747.9
 Etot   =    -29368.6097  EKtot   =      6813.0559  EPtot      =    -36181.6656
 BOND   =         2.2221  ANGLE   =         7.8875  DIHED      =         0.0000
 1-4 NB =         0.0000  1-4 EEL =         0.0000  VDWAALS    =      5282.9191
 EELEC  =    -41474.6943  EHBOND  =         0.0000  RESTRAINT  =         0.0000
 EKCMT  =      3433.5228  VIRIAL  =      5488.3508  VOLUME     =    127237.2343
                                                    Density    =         0.8954
 DV/DL  =      1058.3270
 ------------------------------------------------------------------------------

      R M S  F L U C T U A T I O N S

 NSTEP =     1000   TIME(PS) =     202.000  TEMP(K) =     2.89  PRESS =   139.2
 Etot   =        99.6140  EKtot   =        65.6616  EPtot      =        82.9158
 BOND   =         1.4331  ANGLE   =         1.1573  DIHED      =         0.0000
 1-4 NB =         0.0000  1-4 EEL =         0.0000  VDWAALS    =        82.5246
 EELEC  =       137.6018  EHBOND  =         0.0000  RESTRAINT  =         0.0000
 EKCMT  =        48.3664  VIRIAL  =       383.0269  VOLUME     =       482.6080
                                                    Density    =         0.0034
 DV/DL  =        25.4327
 ------------------------------------------------------------------------------

      DV/DL, AVERAGES OVER    1000 STEPS

 NSTEP =     1000   TIME(PS) =     202.000  TEMP(K) =     2.89  PRESS =     0.0
 Etot   =         0.0000  EKtot   =         0.0000  EPtot      =      1058.3270
 BOND   =         0.0000  ANGLE   =         0.0000  DIHED      =         0.0000
 1-4 NB =         0.0000  1-4 EEL =         0.0000  VDWAALS    =         0.0000
 EELEC  =      1058.3270  EHBOND  =         0.0000  RESTRAINT  =         0.0000
 EKCMT  =         0.0000  VIRIAL  =         0.0000  VOLUME     =         0.0000
                                                    Density    =         0.0000
 DV/DL  =      1058.3270
 ------------------------------------------------------------------------------

      A V E R A G E S   O V E R    1000 S T E P S

 NSTEP =     2000   TIME(PS) =     204.000  TEMP(K) =   299.38  PRESS =  -658.4
 Etot   =    -29492.6755  EKtot   =      6791.9263  EPtot      =    -36284.6018
 BOND   =         1.8869  ANGLE   =         8.3528  DIHED      =         0.0000
 1-4 NB =         0.0000  1-4 EEL =         0.0000  VDWAALS    =      5302.6385
 EELEC  =    -41597.4800  EHBOND  =         0.0000  RESTRAINT  =         0.0000
 EKCMT  =      3411.7515  VIRIAL  =      5198.0061  VOLUME     =    125607.8229
                                                    Density    =         0.9070
 DV/DL  =      1057.1815
 ------------------------------------------------------------------------------

      R M S  F L U C T U A T I O N S

 NSTEP =     2000   TIME(PS) =     204.000  TEMP(K) =     2.21  PRESS =   195.6
 Etot   =        43.2017  EKtot   =        50.0688  EPtot      =        56.8548
 BOND   =         1.2095  ANGLE   =         1.2410  DIHED      =         0.0000
 1-4 NB =         0.0000  1-4 EEL =         0.0000  VDWAALS    =        94.0031
 EELEC  =       111.6043  EHBOND  =         0.0000  RESTRAINT  =         0.0000
 EKCMT  =        41.1176  VIRIAL  =       530.0550  VOLUME     =       421.9079
                                                    Density    =         0.0030
 DV/DL  =        20.3201
 ------------------------------------------------------------------------------

      A V E R A G E S   O V E R    1000 S T E P S

 NSTEP =     2000   TIME(PS) =     204.000  TEMP(K) =   299.38  PRESS =  -658.4
 Etot   =    -29492.6755  EKtot   =      6791.9263  EPtot      =    -36284.6018
 BOND   =         1.8869  ANGLE   =         8.3528  DIHED      =         0.0000
 1-4 NB =         0.0000  1-4 EEL =         0.0000  VDWAALS    =      5302.6385
 EELEC  =    -41597.4800  EHBOND  =         0.0000  RESTRAINT  =         0.0000
 EKCMT  =      3411.7515  VIRIAL  =      5198.0061  VOLUME     =    125607.8229
                                                    Density    =         0.9070
 DV/DL  =      1057.1815
 ------------------------------------------------------------------------------

      R M S  F L U C T U A T I O N S

 NSTEP =     2000   TIME(PS) =     204.000  TEMP(K) =     2.21  PRESS =   195.6
 Etot   =        43.2017  EKtot   =        50.0688  EPtot      =        56.8548
 BOND   =         1.2095  ANGLE   =         1.2410  DIHED      =         0.0000
 1-4 NB =         0.0000  1-4 EEL =         0.0000  VDWAALS    =        94.0031
 EELEC  =       111.6043  EHBOND  =         0.0000  RESTRAINT  =         0.0000
 EKCMT  =        41.1176  VIRIAL  =       530.0550  VOLUME     =       421.9079
                                                    Density    =         0.0030
 DV/DL  =        20.3201
 ------------------------------------------------------------------------------

      DV/DL, AVERAGES OVER    1000 STEPS

 NSTEP =     2000   TIME(PS) =     204.000  TEMP(K) =     2.21  PRESS =     0.0
 Etot   =         0.0000  EKtot   =         0.0000  EPtot      =      1057.1815
 BOND   =         0.0000  ANGLE   =         0.0000  DIHED      =         0.0000
 1-4 NB =         0.0000  1-4 EEL =         0.0000  VDWAALS    =         0.0000
 EELEC  =      1057.1815  EHBOND  =         0.0000  RESTRAINT  =         0.0000
 EKCMT  =         0.0000  VIRIAL  =         0.0000  VOLUME     =         0.0000
                                                    Density    =         0.0000
 DV/DL  =      1057.1815
 ------------------------------------------------------------------------------

      A V E R A G E S   O V E R    1000 S T E P S

 NSTEP =   500000   TIME(PS) =    1200.000  TEMP(K) =   299.57  PRESS =    29.6
 Etot   =    -30063.9024  EKtot   =      6796.2505  EPtot      =    -36860.1529
 BOND   =         2.0262  ANGLE   =         8.0084  DIHED      =         0.0000
 1-4 NB =         0.0000  1-4 EEL =         0.0000  VDWAALS    =      5484.5531
 EELEC  =    -42354.7406  EHBOND  =         0.0000  RESTRAINT  =         0.0000
 EKCMT  =      3405.2205  VIRIAL  =      3331.4995  VOLUME     =    115500.6446
                                                    Density    =         0.9864
 DV/DL  =      1074.7212
 ------------------------------------------------------------------------------

      R M S  F L U C T U A T I O N S

 NSTEP =   500000   TIME(PS) =    1200.000  TEMP(K) =     3.10  PRESS =   193.8
 Etot   =        85.4899  EKtot   =        70.4252  EPtot      =        69.0205
 BOND   =         1.2626  ANGLE   =         1.0313  DIHED      =         0.0000
 1-4 NB =         0.0000  1-4 EEL =         0.0000  VDWAALS    =        96.6062
 EELEC  =       127.9613  EHBOND  =         0.0000  RESTRAINT  =         0.0000
 EKCMT  =        49.2617  VIRIAL  =       473.3744  VOLUME     =        26.9827
                                                    Density    =         0.0002
 DV/DL  =        24.0944
 ------------------------------------------------------------------------------

      A V E R A G E S   O V E R    1000 S T E P S

 NSTEP =   500000   TIME(PS) =    1200.000  TEMP(K) =   299.57  PRESS =    29.6
 Etot   =    -30063.9024  EKtot   =      6796.2505  EPtot      =    -36860.1529
 BOND   =         2.0262  ANGLE   =         8.0084  DIHED      =         0.0000
 1-4 NB =         0.0000  1-4 EEL =         0.0000  VDWAALS    =      5484.5531
 EELEC  =    -42354.7406  EHBOND  =         0.0000  RESTRAINT  =         0.0000
 EKCMT  =      3405.2205  VIRIAL  =      3331.4995  VOLUME     =    115500.6446
                                                    Density    =         0.9864
 DV/DL  =      1074.7212
 ------------------------------------------------------------------------------

      R M S  F L U C T U A T I O N S

 NSTEP =   500000   TIME(PS) =    1200.000  TEMP(K) =     3.10  PRESS =   193.8
 Etot   =        85.4899  EKtot   =        70.4252  EPtot      =        69.0205
 BOND   =         1.2626  ANGLE   =         1.0313  DIHED      =         0.0000
 1-4 NB =         0.0000  1-4 EEL =         0.0000  VDWAALS    =        96.6062
 EELEC  =       127.9613  EHBOND  =         0.0000  RESTRAINT  =         0.0000
 EKCMT  =        49.2617  VIRIAL  =       473.3744  VOLUME     =        26.9827
                                                    Density    =         0.0002
 DV/DL  =        24.0944
 ------------------------------------------------------------------------------

      DV/DL, AVERAGES OVER    1000 STEPS

 NSTEP =   500000   TIME(PS) =    1200.000  TEMP(K) =     3.10  PRESS =     0.0
 Etot   =         0.0000  EKtot   =         0.0000  EPtot      =      1074.7212
 BOND   =         0.0000  ANGLE   =         0.0000  DIHED      =         0.0000
 1-4 NB =         0.0000  1-4 EEL =         0.0000  VDWAALS    =         0.0000
 EELEC  =      1074.7212  EHBOND  =         0.0000  RESTRAINT  =         0.0000
 EKCMT  =         0.0000  VIRIAL  =         0.0000  VOLUME     =         0.0000
                                                    Density    =         0.0000
 DV/DL  =      1074.7212
 ------------------------------------------------------------------------------

      A V E R A G E S   O V E R  500000 S T E P S

 NSTEP =   500000   TIME(PS) =    1200.000  TEMP(K) =   300.02  PRESS =   -10.6
 Etot   =    -30022.2730  EKtot   =      6806.5131  EPtot      =    -36828.7861
 BOND   =         2.1228  ANGLE   =         7.9101  DIHED      =         0.0000
 1-4 NB =         0.0000  1-4 EEL =         0.0000  VDWAALS    =      5457.6371
 EELEC  =    -42296.4560  EHBOND  =         0.0000  RESTRAINT  =         0.0000
 EKCMT  =      3413.7311  VIRIAL  =      3441.5953  VOLUME     =    115703.1443
                                                    Density    =         0.9848
 DV/DL  =      1066.5317
 ------------------------------------------------------------------------------

      R M S  F L U C T U A T I O N S

 NSTEP =   500000   TIME(PS) =    1200.000  TEMP(K) =     2.78  PRESS =   191.2
 Etot   =       123.0140  EKtot   =        63.1188  EPtot      =       104.9287
 BOND   =         1.3542  ANGLE   =         1.0418  DIHED      =         0.0000
 1-4 NB =         0.0000  1-4 EEL =         0.0000  VDWAALS    =        94.7298
 EELEC  =       162.3744  EHBOND  =         0.0000  RESTRAINT  =         0.0000
 EKCMT  =        44.8252  VIRIAL  =       481.4435  VOLUME     =       993.1108
                                                    Density    =         0.0079
 DV/DL  =        25.1158
 ------------------------------------------------------------------------------

      A V E R A G E S   O V E R  500000 S T E P S

 NSTEP =   500000   TIME(PS) =    1200.000  TEMP(K) =   300.02  PRESS =   -10.6
 Etot   =    -30022.2730  EKtot   =      6806.5131  EPtot      =    -36828.7861
 BOND   =         2.1228  ANGLE   =         7.9101  DIHED      =         0.0000
 1-4 NB =         0.0000  1-4 EEL =         0.0000  VDWAALS    =      5457.6371
 EELEC  =    -42296.4560  EHBOND  =         0.0000  RESTRAINT  =         0.0000
 EKCMT  =      3413.7311  VIRIAL  =      3441.5953  VOLUME     =    115703.1443
                                                    Density    =         0.9848
 DV/DL  =      1066.5317
 ------------------------------------------------------------------------------

      R M S  F L U C T U A T I O N S

 NSTEP =   500000   TIME(PS) =    1200.000  TEMP(K) =     2.78  PRESS =   191.2
 Etot   =       123.0140  EKtot   =        63.1188  EPtot      =       104.9287
 BOND   =         1.3542  ANGLE   =         1.0418  DIHED      =         0.0000
 1-4 NB =         0.0000  1-4 EEL =         0.0000  VDWAALS    =        94.7298
 EELEC  =       162.3744  EHBOND  =         0.0000  RESTRAINT  =         0.0000
 EKCMT  =        44.8252  VIRIAL  =       481.4435  VOLUME     =       993.1108
                                                    Density    =         0.0079
 DV/DL  =        25.1158
 ------------------------------------------------------------------------------

      DV/DL, AVERAGES OVER  500000 STEPS

 NSTEP =   500000   TIME(PS) =    1200.000  TEMP(K) =     2.78  PRESS =     0.0
 Etot   =         0.0000  EKtot   =         0.0000  EPtot      =      1066.5317
 BOND   =         0.0000  ANGLE   =         0.0000  DIHED      =         0.0000
 1-4 NB =         0.0000  1-4 EEL =         0.0000  VDWAALS    =         0.0000
 EELEC  =      1066.5317  EHBOND  =         0.0000  RESTRAINT  =         0.0000
 EKCMT  =         0.0000  VIRIAL  =         0.0000  VOLUME     =         0.0000
                                                    Density    =         0.0000
 DV/DL  =      1066.5317
 ------------------------------------------------------------------------------
