-------------------------------------------------------
          Amber 20 PMEMD                              2020
          -------------------------------------------------------

  [-O]verwriting output

File Assignments:

 Here is the input file:

 &cntrl
   nstlim=1000000, nscm=1000,
   ntx=1, irest=0, ntpr=1000,
   tempi=300.0, temp0=300.0, ntt=3, gamma_ln=2.0,
   ntb=1, igb=0, cut=10.0,
   dt=0.001, ig=-1,
   ntc=1, ntf=1,
   iwrap=0,
   ntwr=1000, ntwx=50000, ntave=1000,
   ioutfm=1, ntwv=-1,
   ifsc = 1, icfe=1,
   clambda=0.11505,
   timask1=':1',
   timask2=':2',
/

Note: ig = -1. Setting random seed to   390085 based on wallclock time in
      microseconds.

--------------------------------------------------------------------------------
   1.  RESOURCE   USE:
--------------------------------------------------------------------------------

 getting box info from netcdf restart file
 NATOM  =      10 NTYPES =       6 NBONH =       0 MBONA  =       8
 NTHETH =       0 MTHETA =      12 NPHIH =       0 MPHIA  =       0
 NHPARM =       0 NPARM  =       0 NNB   =      22 NRES   =       2
 NBONA  =       8 NTHETA =      12 NPHIA =       0 NUMBND =       1
 NUMANG =       1 NPTRA  =       0 NATYP =       4 NPHB   =       1
 IFBOX  =       2 NMXRS  =       5 IFCAP =       0 NEXTRA =       0
 NCOPY  =       0

     BOX TYPE: TRUNCATED OCTAHEDRON

--------------------------------------------------------------------------------
   2.  CONTROL  DATA  FOR  THE  RUN
--------------------------------------------------------------------------------

default_name

General flags:
     imin    =       0, nmropt  =       0

Nature and format of input:
     ntx     =       1, irest   =       0, ntrx    =       1

Nature and format of output:
     ntxo    =       2, ntpr    =    1000, ntrx    =       1, ntwr    =    1000
     iwrap   =       0, ntwx    =   50000, ntwv    =      -1, ntwe    =       0
     ioutfm  =       1, ntwprt  =       0, idecomp =       0, rbornstat=      0

Potential function:
     ntf     =       1, ntb     =       1, igb     =       0, nsnb    =      25
     ipol    =       0, gbsa    =       0, iesp    =       0
     dielc   =   1.00000, cut     =  10.00000, intdiel =   1.00000

Frozen or restrained atoms:
     ibelly  =       0, ntr     =       0

Molecular dynamics:
     nstlim  =   1000000, nscm    =      1000, nrespa  =         1
     t       =   0.00000, dt      =   0.00100, vlimit  =  -1.00000

Langevin dynamics temperature regulation:
     ig      =  390085
     temp0   = 300.00000, tempi   = 300.00000, gamma_ln=   2.00000

Free energy options:
     icfe    =       1, ifsc    =       1, klambda =       1
     clambda =  0.1150, scalpha =  0.5000, scbeta  = 12.0000
     sceeorder =       2
     dynlmb =  0.0000 logdvdl =       0

Ewald parameters:
     verbose =       0, ew_type =       0, nbflag  =       1, use_pme =       1
     vdwmeth =       1, eedmeth =       1, netfrc  =       1
     Box X =   55.004   Box Y =   55.004   Box Z =   55.004
     Alpha =  109.471   Beta  =  109.471   Gamma =  109.471
     NFFT1 =   56       NFFT2 =   56       NFFT3 =   56
     Cutoff=   10.000   Tol   =0.100E-04
     Ewald Coefficient =  0.27511
     Interpolation order =    4
     TI Mask 1 :1; matches      5 atoms
     TI Mask 2 :2; matches      5 atoms
     TI region 1:       5 atoms
     TI region 2:       5 atoms

--------------------------------------------------------------------------------
   3.  ATOMIC COORDINATES AND VELOCITIES
--------------------------------------------------------------------------------

default_name
 begin time read from input coords =     0.000 ps

 Number of triangulated 3-point waters found:        0
 Number of shake restraints removed in TI region  1 :        0
 Number of shake restraints removed in TI region  2 :        0

     Sum of charges for TI region  1 =  -2.99999999
     Skip neutralizing charges...

     Sum of charges for TI region  2 =   0.00000000
     Skip neutralizing charges...

--------------------------------------------------------------------------------
   4.  RESULTS
 NSTEP =        0   TIME(PS) =       0.000  TEMP(K) =   212.04  PRESS =     0.0
 Etot   =       -66.2105  EKtot   =         3.1602  EPtot      =       -69.3707
 BOND   =         0.0000  ANGLE   =         6.2592  DIHED      =         0.0000
 1-4 NB =         0.0000  1-4 EEL =         0.0000  VDWAALS    =        -0.0003
 EELEC  =       -75.6296  EHBOND  =         0.0000  RESTRAINT  =         0.0000
 DV/DL  =        85.4624
 ------------------------------------------------------------------------------

      A V E R A G E S   O V E R    1000 S T E P S

 NSTEP =     1000   TIME(PS) =       1.000  TEMP(K) =   171.58  PRESS =     0.0
 Etot   =       -65.2820  EKtot   =         2.5572  EPtot      =       -67.8392
 BOND   =         0.8207  ANGLE   =         6.9662  DIHED      =         0.0000
 1-4 NB =         0.0000  1-4 EEL =         0.0000  VDWAALS    =        -0.0003
 EELEC  =       -75.6258  EHBOND  =         0.0000  RESTRAINT  =         0.0000
 DV/DL  =        85.4583
 ------------------------------------------------------------------------------

      R M S  F L U C T U A T I O N S

 NSTEP =     1000   TIME(PS) =       1.000  TEMP(K) =    58.00  PRESS =     0.0
 Etot   =         1.1028  EKtot   =         0.8644  EPtot      =         0.6902
 BOND   =         0.5086  ANGLE   =         0.4402  DIHED      =         0.0000
 1-4 NB =         0.0000  1-4 EEL =         0.0000  VDWAALS    =         0.0000
 EELEC  =         0.0088  EHBOND  =         0.0000  RESTRAINT  =         0.0000
 DV/DL  =         0.0214
 ------------------------------------------------------------------------------

      A V E R A G E S   O V E R    1000 S T E P S

 NSTEP =     1000   TIME(PS) =       1.000  TEMP(K) =   171.99  PRESS =     0.0
 Etot   =       -65.2758  EKtot   =         2.5634  EPtot      =       -67.8392
 BOND   =         0.8207  ANGLE   =         6.9662  DIHED      =         0.0000
 1-4 NB =         0.0000  1-4 EEL =         0.0000  VDWAALS    =        -0.0003
 EELEC  =       -75.6258  EHBOND  =         0.0000  RESTRAINT  =         0.0000
 DV/DL  =        85.4583
 ------------------------------------------------------------------------------

      R M S  F L U C T U A T I O N S

 NSTEP =     1000   TIME(PS) =       1.000  TEMP(K) =    58.16  PRESS =     0.0
 Etot   =         1.1063  EKtot   =         0.8669  EPtot      =         0.6902
 BOND   =         0.5086  ANGLE   =         0.4402  DIHED      =         0.0000
 1-4 NB =         0.0000  1-4 EEL =         0.0000  VDWAALS    =         0.0000
 EELEC  =         0.0088  EHBOND  =         0.0000  RESTRAINT  =         0.0000
 DV/DL  =         0.0214
 ------------------------------------------------------------------------------

      DV/DL, AVERAGES OVER    1000 STEPS

 NSTEP =     1000   TIME(PS) =       1.000  TEMP(K) =    58.16  PRESS =     0.0
 Etot   =         0.0000  EKtot   =         0.0000  EPtot      =        85.4583
 BOND   =         0.0006  ANGLE   =        -0.0003  DIHED      =         0.0000
 1-4 NB =         0.0000  1-4 EEL =         0.0000  VDWAALS    =         0.0003
 EELEC  =        85.4577  EHBOND  =         0.0000  RESTRAINT  =         0.0000
 DV/DL  =        85.4583
 ------------------------------------------------------------------------------

      A V E R A G E S   O V E R    1000 S T E P S

 NSTEP =     2000   TIME(PS) =       2.000  TEMP(K) =   277.05  PRESS =     0.0
 Etot   =       -63.1180  EKtot   =         4.1291  EPtot      =       -67.2471
 BOND   =         0.8188  ANGLE   =         7.5689  DIHED      =         0.0000
 1-4 NB =         0.0000  1-4 EEL =         0.0000  VDWAALS    =        -0.0003
 EELEC  =       -75.6346  EHBOND  =         0.0000  RESTRAINT  =         0.0000
 DV/DL  =        85.4677
 ------------------------------------------------------------------------------

      R M S  F L U C T U A T I O N S

 NSTEP =     2000   TIME(PS) =       2.000  TEMP(K) =    98.21  PRESS =     0.0
 Etot   =         1.3730  EKtot   =         1.4637  EPtot      =         0.7574
 BOND   =         0.5100  ANGLE   =         0.5979  DIHED      =         0.0000
 1-4 NB =         0.0000  1-4 EEL =         0.0000  VDWAALS    =         0.0000
 EELEC  =         0.0072  EHBOND  =         0.0000  RESTRAINT  =         0.0000
 DV/DL  =         0.0208
 ------------------------------------------------------------------------------

      A V E R A G E S   O V E R    1000 S T E P S

 NSTEP =     2000   TIME(PS) =       2.000  TEMP(K) =   277.13  PRESS =     0.0
 Etot   =       -63.1169  EKtot   =         4.1303  EPtot      =       -67.2471
 BOND   =         0.8188  ANGLE   =         7.5689  DIHED      =         0.0000
 1-4 NB =         0.0000  1-4 EEL =         0.0000  VDWAALS    =        -0.0003
 EELEC  =       -75.6346  EHBOND  =         0.0000  RESTRAINT  =         0.0000
 DV/DL  =        85.4677
 ------------------------------------------------------------------------------

      R M S  F L U C T U A T I O N S

 NSTEP =     2000   TIME(PS) =       2.000  TEMP(K) =    98.37  PRESS =     0.0
 Etot   =         1.3747  EKtot   =         1.4661  EPtot      =         0.7574
 BOND   =         0.5100  ANGLE   =         0.5979  DIHED      =         0.0000
 1-4 NB =         0.0000  1-4 EEL =         0.0000  VDWAALS    =         0.0000
 EELEC  =         0.0072  EHBOND  =         0.0000  RESTRAINT  =         0.0000
 DV/DL  =         0.0208
 ------------------------------------------------------------------------------

      DV/DL, AVERAGES OVER    1000 STEPS

 NSTEP =     2000   TIME(PS) =       2.000  TEMP(K) =    98.37  PRESS =     0.0
 Etot   =         0.0000  EKtot   =         0.0000  EPtot      =        85.4677
 BOND   =        -0.0000  ANGLE   =        -0.0002  DIHED      =         0.0000
 1-4 NB =         0.0000  1-4 EEL =         0.0000  VDWAALS    =         0.0003
 EELEC  =        85.4676  EHBOND  =         0.0000  RESTRAINT  =         0.0000
 DV/DL  =        85.4677
 ------------------------------------------------------------------------------

      A V E R A G E S   O V E R    1000 S T E P S

 NSTEP =  1000000   TIME(PS) =    1000.000  TEMP(K) =   263.47  PRESS =     0.0
 Etot   =       -62.4328  EKtot   =         3.9267  EPtot      =       -66.3595
 BOND   =         1.0622  ANGLE   =         8.2060  DIHED      =         0.0000
 1-4 NB =         0.0000  1-4 EEL =         0.0000  VDWAALS    =        -0.0003
 EELEC  =       -75.6275  EHBOND  =         0.0000  RESTRAINT  =         0.0000
 DV/DL  =        85.4597
 ------------------------------------------------------------------------------

      R M S  F L U C T U A T I O N S

 NSTEP =  1000000   TIME(PS) =    1000.000  TEMP(K) =    76.22  PRESS =     0.0
 Etot   =         0.5195  EKtot   =         1.1360  EPtot      =         1.1255
 BOND   =         0.7415  ANGLE   =         0.9873  DIHED      =         0.0000
 1-4 NB =         0.0000  1-4 EEL =         0.0000  VDWAALS    =         0.0000
 EELEC  =         0.0094  EHBOND  =         0.0000  RESTRAINT  =         0.0000
 DV/DL  =         0.0241
 ------------------------------------------------------------------------------

      A V E R A G E S   O V E R    1000 S T E P S

 NSTEP =  1000000   TIME(PS) =    1000.000  TEMP(K) =   263.61  PRESS =     0.0
 Etot   =       -62.4307  EKtot   =         3.9288  EPtot      =       -66.3595
 BOND   =         1.0622  ANGLE   =         8.2060  DIHED      =         0.0000
 1-4 NB =         0.0000  1-4 EEL =         0.0000  VDWAALS    =        -0.0003
 EELEC  =       -75.6275  EHBOND  =         0.0000  RESTRAINT  =         0.0000
 DV/DL  =        85.4597
 ------------------------------------------------------------------------------

      R M S  F L U C T U A T I O N S

 NSTEP =  1000000   TIME(PS) =    1000.000  TEMP(K) =    76.48  PRESS =     0.0
 Etot   =         0.5309  EKtot   =         1.1398  EPtot      =         1.1255
 BOND   =         0.7415  ANGLE   =         0.9873  DIHED      =         0.0000
 1-4 NB =         0.0000  1-4 EEL =         0.0000  VDWAALS    =         0.0000
 EELEC  =         0.0094  EHBOND  =         0.0000  RESTRAINT  =         0.0000
 DV/DL  =         0.0241
 ------------------------------------------------------------------------------

      DV/DL, AVERAGES OVER    1000 STEPS

 NSTEP =  1000000   TIME(PS) =    1000.000  TEMP(K) =    76.48  PRESS =     0.0
 Etot   =         0.0000  EKtot   =         0.0000  EPtot      =        85.4597
 BOND   =        -0.0004  ANGLE   =         0.0001  DIHED      =         0.0000
 1-4 NB =         0.0000  1-4 EEL =         0.0000  VDWAALS    =         0.0003
 EELEC  =        85.4596  EHBOND  =         0.0000  RESTRAINT  =         0.0000
 DV/DL  =        85.4597
 ------------------------------------------------------------------------------

      A V E R A G E S   O V E R 1000000 S T E P S

 NSTEP =  1000000   TIME(PS) =    1000.000  TEMP(K) =   299.06  PRESS =     0.0
 Etot   =       -62.2267  EKtot   =         4.4571  EPtot      =       -66.6839
 BOND   =         1.1928  ANGLE   =         7.7502  DIHED      =         0.0000
 1-4 NB =         0.0000  1-4 EEL =         0.0000  VDWAALS    =        -0.0003
 EELEC  =       -75.6266  EHBOND  =         0.0000  RESTRAINT  =         0.0000
 DV/DL  =        85.4589
 ------------------------------------------------------------------------------

      R M S  F L U C T U A T I O N S

 NSTEP =  1000000   TIME(PS) =    1000.000  TEMP(K) =   109.19  PRESS =     0.0
 Etot   =         2.0885  EKtot   =         1.6274  EPtot      =         1.2800
 BOND   =         0.8359  ANGLE   =         0.9598  DIHED      =         0.0000
 1-4 NB =         0.0000  1-4 EEL =         0.0000  VDWAALS    =         0.0000
 EELEC  =         0.0097  EHBOND  =         0.0000  RESTRAINT  =         0.0000
 DV/DL  =         0.0269
 ------------------------------------------------------------------------------

      A V E R A G E S   O V E R 1000000 S T E P S

 NSTEP =  1000000   TIME(PS) =    1000.000  TEMP(K) =   299.05  PRESS =     0.0
 Etot   =       -62.2268  EKtot   =         4.4571  EPtot      =       -66.6839
 BOND   =         1.1928  ANGLE   =         7.7502  DIHED      =         0.0000
 1-4 NB =         0.0000  1-4 EEL =         0.0000  VDWAALS    =        -0.0003
 EELEC  =       -75.6266  EHBOND  =         0.0000  RESTRAINT  =         0.0000
 DV/DL  =        85.4589
 ------------------------------------------------------------------------------

      R M S  F L U C T U A T I O N S

 NSTEP =  1000000   TIME(PS) =    1000.000  TEMP(K) =   109.19  PRESS =     0.0
 Etot   =         2.0883  EKtot   =         1.6273  EPtot      =         1.2800
 BOND   =         0.8359  ANGLE   =         0.9598  DIHED      =         0.0000
 1-4 NB =         0.0000  1-4 EEL =         0.0000  VDWAALS    =         0.0000
 EELEC  =         0.0097  EHBOND  =         0.0000  RESTRAINT  =         0.0000
 DV/DL  =         0.0269
 ------------------------------------------------------------------------------

      DV/DL, AVERAGES OVER 1000000 STEPS

 NSTEP =  1000000   TIME(PS) =    1000.000  TEMP(K) =   109.19  PRESS =     0.0
 Etot   =         0.0000  EKtot   =         0.0000  EPtot      =        85.4589
 BOND   =        -0.0000  ANGLE   =        -0.0000  DIHED      =         0.0000
 1-4 NB =         0.0000  1-4 EEL =         0.0000  VDWAALS    =         0.0003
 EELEC  =        85.4586  EHBOND  =         0.0000  RESTRAINT  =         0.0000
 DV/DL  =        85.4589
 ------------------------------------------------------------------------------
