-------------------------------------------------------
          Amber 20 PMEMD                              2020
          -------------------------------------------------------

  [-O]verwriting output

File Assignments:

 Here is the input file:

 &cntrl
   nstlim=500000, nscm=1000,
   ntx=5, irest=1, ntpr=1000,
   tempi=300.0, temp0=300.0, ntt=3, gamma_ln=2.0,
   ntp=1, pres0=1.01325, taup=5.0,
   ntb=2, igb=0, cut=10.0,
   dt=0.002, ig=-1,
   ntc=2, ntf=2,
   iwrap=0,
   ntwr=1000, ntwx=50000, ntave=1000,
   ioutfm=1, ntwv=-1,
   ifsc = 0, icfe=1,
   clambda=0.43738,
   timask1=':1',
   timask2=':2',
/

Note: ig = -1. Setting random seed to   942286 based on wallclock time in
      microseconds.

--------------------------------------------------------------------------------
   1.  RESOURCE   USE:
--------------------------------------------------------------------------------

 getting box info from netcdf restart file
 NATOM  =   11419 NTYPES =       6 NBONH =   11409 MBONA  =       8
 NTHETH =       0 MTHETA =      12 NPHIH =       0 MPHIA  =       0
 NHPARM =       0 NPARM  =       0 NNB   =   15234 NRES   =    3805
 NBONA  =       8 NTHETA =      12 NPHIA =       0 NUMBND =       3
 NUMANG =       1 NPTRA  =       0 NATYP =       4 NPHB   =       1
 IFBOX  =       2 NMXRS  =       5 IFCAP =       0 NEXTRA =       0
 NCOPY  =       0

     BOX TYPE: TRUNCATED OCTAHEDRON

--------------------------------------------------------------------------------
   2.  CONTROL  DATA  FOR  THE  RUN
--------------------------------------------------------------------------------

default_name

General flags:
     imin    =       0, nmropt  =       0

Nature and format of input:
     ntx     =       5, irest   =       1, ntrx    =       1

Nature and format of output:
     ntxo    =       2, ntpr    =    1000, ntrx    =       1, ntwr    =    1000
     iwrap   =       0, ntwx    =   50000, ntwv    =      -1, ntwe    =       0
     ioutfm  =       1, ntwprt  =       0, idecomp =       0, rbornstat=      0

Potential function:
     ntf     =       2, ntb     =       2, igb     =       0, nsnb    =      25
     ipol    =       0, gbsa    =       0, iesp    =       0
     dielc   =   1.00000, cut     =  10.00000, intdiel =   1.00000

Frozen or restrained atoms:
     ibelly  =       0, ntr     =       0

Molecular dynamics:
     nstlim  =    500000, nscm    =      1000, nrespa  =         1
     t       =   0.00000, dt      =   0.00200, vlimit  =  -1.00000

Langevin dynamics temperature regulation:
     ig      =  942286
     temp0   = 300.00000, tempi   = 300.00000, gamma_ln=   2.00000

Pressure regulation:
     ntp     =       1
     pres0   =   1.01325, comp    =  44.60000, taup    =   5.00000

SHAKE:
     ntc     =       2, jfastw  =       0
     tol     =   0.00001

Free energy options:
     icfe    =       1, ifsc    =       0, klambda =       1
     clambda =  0.4374, scalpha =  0.5000, scbeta  = 12.0000
     sceeorder =       2
     dynlmb =  0.0000 logdvdl =       0

Ewald parameters:
     verbose =       0, ew_type =       0, nbflag  =       1, use_pme =       1
     vdwmeth =       1, eedmeth =       1, netfrc  =       1
     Box X =   55.004   Box Y =   55.004   Box Z =   55.004
     Alpha =  109.471   Beta  =  109.471   Gamma =  109.471
     NFFT1 =   56       NFFT2 =   56       NFFT3 =   56
     Cutoff=   10.000   Tol   =0.100E-04
     Ewald Coefficient =  0.27511
     Interpolation order =    4
     TI Mask 1 :1; matches      5 atoms
     TI Mask 2 :2; matches      5 atoms
     TI region 1:   11414 atoms
     TI region 2:   11414 atoms
     Checking for mismatched coordinates.

--------------------------------------------------------------------------------
   3.  ATOMIC COORDINATES AND VELOCITIES
--------------------------------------------------------------------------------

default_name
 begin time read from input coords =   200.000 ps

 Number of triangulated 3-point waters found:     3803

     Sum of charges for TI region  1 =  -2.99999999
     Skip neutralizing charges...

     Sum of charges for TI region  2 =   0.00000000
     Skip neutralizing charges...

--------------------------------------------------------------------------------
   4.  RESULTS
 NSTEP =     1000   TIME(PS) =     202.000  TEMP(K) =   301.38  PRESS = -1174.3
 Etot   =    -29146.8236  EKtot   =      6837.2462  EPtot      =    -35984.0698
 BOND   =         0.5581  ANGLE   =         7.8068  DIHED      =         0.0000
 1-4 NB =         0.0000  1-4 EEL =         0.0000  VDWAALS    =      5135.1158
 EELEC  =    -41127.5506  EHBOND  =         0.0000  RESTRAINT  =         0.0000
 EKCMT  =      3410.4073  VIRIAL  =      6596.1064  VOLUME     =    125644.0352
                                                    Density    =         0.9068
 DV/DL  =       775.8729
 ------------------------------------------------------------------------------

      A V E R A G E S   O V E R    1000 S T E P S

 NSTEP =     1000   TIME(PS) =     202.000  TEMP(K) =   299.14  PRESS = -1086.5
 Etot   =    -28946.1427  EKtot   =      6786.6254  EPtot      =    -35732.7681
 BOND   =         1.9875  ANGLE   =         7.9389  DIHED      =         0.0000
 1-4 NB =         0.0000  1-4 EEL =         0.0000  VDWAALS    =      5154.4504
 EELEC  =    -40897.1449  EHBOND  =         0.0000  RESTRAINT  =         0.0000
 EKCMT  =      3421.3385  VIRIAL  =      6397.6631  VOLUME     =    126841.9566
                                                    Density    =         0.8982
 DV/DL  =       723.5548
 ------------------------------------------------------------------------------

      R M S  F L U C T U A T I O N S

 NSTEP =     1000   TIME(PS) =     202.000  TEMP(K) =     2.26  PRESS =   144.7
 Etot   =        86.5644  EKtot   =        51.1928  EPtot      =        94.3244
 BOND   =         1.1710  ANGLE   =         0.9155  DIHED      =         0.0000
 1-4 NB =         0.0000  1-4 EEL =         0.0000  VDWAALS    =        74.7591
 EELEC  =       128.5231  EHBOND  =         0.0000  RESTRAINT  =         0.0000
 EKCMT  =        37.3605  VIRIAL  =       414.3392  VOLUME     =       712.7734
                                                    Density    =         0.0050
 DV/DL  =        25.1674
 ------------------------------------------------------------------------------

      A V E R A G E S   O V E R    1000 S T E P S

 NSTEP =     1000   TIME(PS) =     202.000  TEMP(K) =   299.14  PRESS = -1086.5
 Etot   =    -28946.1427  EKtot   =      6786.6254  EPtot      =    -35732.7681
 BOND   =         1.9875  ANGLE   =         7.9389  DIHED      =         0.0000
 1-4 NB =         0.0000  1-4 EEL =         0.0000  VDWAALS    =      5154.4504
 EELEC  =    -40897.1449  EHBOND  =         0.0000  RESTRAINT  =         0.0000
 EKCMT  =      3421.3385  VIRIAL  =      6397.6631  VOLUME     =    126841.9566
                                                    Density    =         0.8982
 DV/DL  =       723.5548
 ------------------------------------------------------------------------------

      R M S  F L U C T U A T I O N S

 NSTEP =     1000   TIME(PS) =     202.000  TEMP(K) =     2.26  PRESS =   144.7
 Etot   =        86.5644  EKtot   =        51.1928  EPtot      =        94.3244
 BOND   =         1.1710  ANGLE   =         0.9155  DIHED      =         0.0000
 1-4 NB =         0.0000  1-4 EEL =         0.0000  VDWAALS    =        74.7591
 EELEC  =       128.5231  EHBOND  =         0.0000  RESTRAINT  =         0.0000
 EKCMT  =        37.3605  VIRIAL  =       414.3392  VOLUME     =       712.7734
                                                    Density    =         0.0050
 DV/DL  =        25.1674
 ------------------------------------------------------------------------------

      DV/DL, AVERAGES OVER    1000 STEPS

 NSTEP =     1000   TIME(PS) =     202.000  TEMP(K) =     2.26  PRESS =     0.0
 Etot   =         0.0000  EKtot   =         0.0000  EPtot      =       723.5548
 BOND   =         0.0000  ANGLE   =         0.0000  DIHED      =         0.0000
 1-4 NB =         0.0000  1-4 EEL =         0.0000  VDWAALS    =       -26.5782
 EELEC  =       750.1330  EHBOND  =         0.0000  RESTRAINT  =         0.0000
 EKCMT  =         0.0000  VIRIAL  =         0.0000  VOLUME     =         0.0000
                                                    Density    =         0.0000
 DV/DL  =       723.5548
 ------------------------------------------------------------------------------

      A V E R A G E S   O V E R    1000 S T E P S

 NSTEP =     2000   TIME(PS) =     204.000  TEMP(K) =   299.97  PRESS =  -924.2
 Etot   =    -29132.9030  EKtot   =      6805.2826  EPtot      =    -35938.1856
 BOND   =         1.5005  ANGLE   =         7.5585  DIHED      =         0.0000
 1-4 NB =         0.0000  1-4 EEL =         0.0000  VDWAALS    =      5228.4047
 EELEC  =    -41175.6493  EHBOND  =         0.0000  RESTRAINT  =         0.0000
 EKCMT  =      3414.4980  VIRIAL  =      5900.9675  VOLUME     =    124591.5524
                                                    Density    =         0.9145
 DV/DL  =       735.5340
 ------------------------------------------------------------------------------

      R M S  F L U C T U A T I O N S

 NSTEP =     2000   TIME(PS) =     204.000  TEMP(K) =     2.70  PRESS =   164.6
 Etot   =        83.4216  EKtot   =        61.3514  EPtot      =        73.3567
 BOND   =         1.2247  ANGLE   =         0.9126  DIHED      =         0.0000
 1-4 NB =         0.0000  1-4 EEL =         0.0000  VDWAALS    =        92.0350
 EELEC  =       132.1755  EHBOND  =         0.0000  RESTRAINT  =         0.0000
 EKCMT  =        41.2854  VIRIAL  =       441.7064  VOLUME     =       607.3381
                                                    Density    =         0.0045
 DV/DL  =        24.8630
 ------------------------------------------------------------------------------

      A V E R A G E S   O V E R    1000 S T E P S

 NSTEP =     2000   TIME(PS) =     204.000  TEMP(K) =   299.97  PRESS =  -924.2
 Etot   =    -29132.9030  EKtot   =      6805.2826  EPtot      =    -35938.1856
 BOND   =         1.5005  ANGLE   =         7.5585  DIHED      =         0.0000
 1-4 NB =         0.0000  1-4 EEL =         0.0000  VDWAALS    =      5228.4047
 EELEC  =    -41175.6493  EHBOND  =         0.0000  RESTRAINT  =         0.0000
 EKCMT  =      3414.4980  VIRIAL  =      5900.9675  VOLUME     =    124591.5524
                                                    Density    =         0.9145
 DV/DL  =       735.5340
 ------------------------------------------------------------------------------

      R M S  F L U C T U A T I O N S

 NSTEP =     2000   TIME(PS) =     204.000  TEMP(K) =     2.70  PRESS =   164.6
 Etot   =        83.4216  EKtot   =        61.3514  EPtot      =        73.3567
 BOND   =         1.2247  ANGLE   =         0.9126  DIHED      =         0.0000
 1-4 NB =         0.0000  1-4 EEL =         0.0000  VDWAALS    =        92.0350
 EELEC  =       132.1755  EHBOND  =         0.0000  RESTRAINT  =         0.0000
 EKCMT  =        41.2854  VIRIAL  =       441.7064  VOLUME     =       607.3381
                                                    Density    =         0.0045
 DV/DL  =        24.8630
 ------------------------------------------------------------------------------

      DV/DL, AVERAGES OVER    1000 STEPS

 NSTEP =     2000   TIME(PS) =     204.000  TEMP(K) =     2.70  PRESS =     0.0
 Etot   =         0.0000  EKtot   =         0.0000  EPtot      =       735.5340
 BOND   =         0.0000  ANGLE   =         0.0000  DIHED      =         0.0000
 1-4 NB =         0.0000  1-4 EEL =         0.0000  VDWAALS    =       -26.1933
 EELEC  =       761.7274  EHBOND  =         0.0000  RESTRAINT  =         0.0000
 EKCMT  =         0.0000  VIRIAL  =         0.0000  VOLUME     =         0.0000
                                                    Density    =         0.0000
 DV/DL  =       735.5340
 ------------------------------------------------------------------------------

      A V E R A G E S   O V E R    1000 S T E P S

 NSTEP =   500000   TIME(PS) =    1200.000  TEMP(K) =   300.15  PRESS =    26.2
 Etot   =    -29765.2364  EKtot   =      6809.5282  EPtot      =    -36574.7646
 BOND   =         1.6850  ANGLE   =         8.1900  DIHED      =         0.0000
 1-4 NB =         0.0000  1-4 EEL =         0.0000  VDWAALS    =      5492.6870
 EELEC  =    -42077.3266  EHBOND  =         0.0000  RESTRAINT  =         0.0000
 EKCMT  =      3415.0116  VIRIAL  =      3349.5382  VOLUME     =    115793.3539
                                                    Density    =         0.9839
 DV/DL  =       724.4831
 ------------------------------------------------------------------------------

      R M S  F L U C T U A T I O N S

 NSTEP =   500000   TIME(PS) =    1200.000  TEMP(K) =     2.32  PRESS =   177.8
 Etot   =        74.8984  EKtot   =        52.7077  EPtot      =        74.4893
 BOND   =         1.0744  ANGLE   =         1.1620  DIHED      =         0.0000
 1-4 NB =         0.0000  1-4 EEL =         0.0000  VDWAALS    =        97.8300
 EELEC  =       140.7298  EHBOND  =         0.0000  RESTRAINT  =         0.0000
 EKCMT  =        40.1709  VIRIAL  =       445.1444  VOLUME     =        24.4987
                                                    Density    =         0.0002
 DV/DL  =        22.5658
 ------------------------------------------------------------------------------

      A V E R A G E S   O V E R    1000 S T E P S

 NSTEP =   500000   TIME(PS) =    1200.000  TEMP(K) =   300.15  PRESS =    26.2
 Etot   =    -29765.2364  EKtot   =      6809.5282  EPtot      =    -36574.7646
 BOND   =         1.6850  ANGLE   =         8.1900  DIHED      =         0.0000
 1-4 NB =         0.0000  1-4 EEL =         0.0000  VDWAALS    =      5492.6870
 EELEC  =    -42077.3266  EHBOND  =         0.0000  RESTRAINT  =         0.0000
 EKCMT  =      3415.0116  VIRIAL  =      3349.5382  VOLUME     =    115793.3539
                                                    Density    =         0.9839
 DV/DL  =       724.4831
 ------------------------------------------------------------------------------

      R M S  F L U C T U A T I O N S

 NSTEP =   500000   TIME(PS) =    1200.000  TEMP(K) =     2.32  PRESS =   177.8
 Etot   =        74.8984  EKtot   =        52.7077  EPtot      =        74.4893
 BOND   =         1.0744  ANGLE   =         1.1620  DIHED      =         0.0000
 1-4 NB =         0.0000  1-4 EEL =         0.0000  VDWAALS    =        97.8300
 EELEC  =       140.7298  EHBOND  =         0.0000  RESTRAINT  =         0.0000
 EKCMT  =        40.1709  VIRIAL  =       445.1444  VOLUME     =        24.4987
                                                    Density    =         0.0002
 DV/DL  =        22.5658
 ------------------------------------------------------------------------------

      DV/DL, AVERAGES OVER    1000 STEPS

 NSTEP =   500000   TIME(PS) =    1200.000  TEMP(K) =     2.32  PRESS =     0.0
 Etot   =         0.0000  EKtot   =         0.0000  EPtot      =       724.4831
 BOND   =         0.0000  ANGLE   =         0.0000  DIHED      =         0.0000
 1-4 NB =         0.0000  1-4 EEL =         0.0000  VDWAALS    =       -26.2580
 EELEC  =       750.7411  EHBOND  =         0.0000  RESTRAINT  =         0.0000
 EKCMT  =         0.0000  VIRIAL  =         0.0000  VOLUME     =         0.0000
                                                    Density    =         0.0000
 DV/DL  =       724.4831
 ------------------------------------------------------------------------------

      A V E R A G E S   O V E R  500000 S T E P S

 NSTEP =   500000   TIME(PS) =    1200.000  TEMP(K) =   299.93  PRESS =   -10.3
 Etot   =    -29721.0188  EKtot   =      6804.4791  EPtot      =    -36525.4980
 BOND   =         1.4970  ANGLE   =         7.8993  DIHED      =         0.0000
 1-4 NB =         0.0000  1-4 EEL =         0.0000  VDWAALS    =      5441.8390
 EELEC  =    -41976.7333  EHBOND  =         0.0000  RESTRAINT  =         0.0000
 EKCMT  =      3412.2047  VIRIAL  =      3439.4646  VOLUME     =    115780.5499
                                                    Density    =         0.9841
 DV/DL  =       736.4054
 ------------------------------------------------------------------------------

      R M S  F L U C T U A T I O N S

 NSTEP =   500000   TIME(PS) =    1200.000  TEMP(K) =     2.78  PRESS =   195.9
 Etot   =       124.3612  EKtot   =        63.1731  EPtot      =       106.4059
 BOND   =         1.0397  ANGLE   =         1.0423  DIHED      =         0.0000
 1-4 NB =         0.0000  1-4 EEL =         0.0000  VDWAALS    =        95.2854
 EELEC  =       164.8313  EHBOND  =         0.0000  RESTRAINT  =         0.0000
 EKCMT  =        44.9135  VIRIAL  =       496.1489  VOLUME     =       819.3690
                                                    Density    =         0.0065
 DV/DL  =        24.5636
 ------------------------------------------------------------------------------

      A V E R A G E S   O V E R  500000 S T E P S

 NSTEP =   500000   TIME(PS) =    1200.000  TEMP(K) =   299.93  PRESS =   -10.3
 Etot   =    -29721.0188  EKtot   =      6804.4791  EPtot      =    -36525.4980
 BOND   =         1.4970  ANGLE   =         7.8993  DIHED      =         0.0000
 1-4 NB =         0.0000  1-4 EEL =         0.0000  VDWAALS    =      5441.8390
 EELEC  =    -41976.7333  EHBOND  =         0.0000  RESTRAINT  =         0.0000
 EKCMT  =      3412.2047  VIRIAL  =      3439.4646  VOLUME     =    115780.5499
                                                    Density    =         0.9841
 DV/DL  =       736.4054
 ------------------------------------------------------------------------------

      R M S  F L U C T U A T I O N S

 NSTEP =   500000   TIME(PS) =    1200.000  TEMP(K) =     2.78  PRESS =   195.9
 Etot   =       124.3612  EKtot   =        63.1731  EPtot      =       106.4059
 BOND   =         1.0397  ANGLE   =         1.0423  DIHED      =         0.0000
 1-4 NB =         0.0000  1-4 EEL =         0.0000  VDWAALS    =        95.2854
 EELEC  =       164.8313  EHBOND  =         0.0000  RESTRAINT  =         0.0000
 EKCMT  =        44.9135  VIRIAL  =       496.1489  VOLUME     =       819.3690
                                                    Density    =         0.0065
 DV/DL  =        24.5636
 ------------------------------------------------------------------------------

      DV/DL, AVERAGES OVER  500000 STEPS

 NSTEP =   500000   TIME(PS) =    1200.000  TEMP(K) =     2.78  PRESS =     0.0
 Etot   =         0.0000  EKtot   =         0.0000  EPtot      =       736.4054
 BOND   =         0.0000  ANGLE   =         0.0000  DIHED      =         0.0000
 1-4 NB =         0.0000  1-4 EEL =         0.0000  VDWAALS    =       -26.4872
 EELEC  =       762.8925  EHBOND  =         0.0000  RESTRAINT  =         0.0000
 EKCMT  =         0.0000  VIRIAL  =         0.0000  VOLUME     =         0.0000
                                                    Density    =         0.0000
 DV/DL  =       736.4054
 ------------------------------------------------------------------------------
