-------------------------------------------------------
          Amber 20 PMEMD                              2020
          -------------------------------------------------------

  [-O]verwriting output

File Assignments:

 Here is the input file:

 &cntrl
   nstlim=500000, nscm=1000,
   ntx=1, irest=0, ntpr=1000,
   tempi=300.0, temp0=300.0, ntt=3, gamma_ln=2.0,
   ntb=1, igb=0, cut=10.0,
   dt=0.002, ig=-1,
   ntc=2, ntf=2,
   iwrap=0,
   ntwr=1000, ntwx=50000, ntave=1000,
   ioutfm=1, ntwv=-1,
   ifsc = 0, icfe=1,
   clambda=0.04794,
   timask1=':1',
   timask2=':2', crgmask = ':2',
/

Note: ig = -1. Setting random seed to   211165 based on wallclock time in
      microseconds.

--------------------------------------------------------------------------------
   1.  RESOURCE   USE:
--------------------------------------------------------------------------------

 getting box info from netcdf restart file
 NATOM  =      10 NTYPES =       4 NBONH =       0 MBONA  =       8
 NTHETH =       0 MTHETA =      12 NPHIH =       0 MPHIA  =       0
 NHPARM =       0 NPARM  =       0 NNB   =      22 NRES   =       2
 NBONA  =       8 NTHETA =      12 NPHIA =       0 NUMBND =       1
 NUMANG =       1 NPTRA  =       0 NATYP =       4 NPHB   =       1
 IFBOX  =       2 NMXRS  =       5 IFCAP =       0 NEXTRA =       0
 NCOPY  =       0

     BOX TYPE: TRUNCATED OCTAHEDRON

--------------------------------------------------------------------------------
   2.  CONTROL  DATA  FOR  THE  RUN
--------------------------------------------------------------------------------

default_name

General flags:
     imin    =       0, nmropt  =       0

Nature and format of input:
     ntx     =       1, irest   =       0, ntrx    =       1

Nature and format of output:
     ntxo    =       2, ntpr    =    1000, ntrx    =       1, ntwr    =    1000
     iwrap   =       0, ntwx    =   50000, ntwv    =      -1, ntwe    =       0
     ioutfm  =       1, ntwprt  =       0, idecomp =       0, rbornstat=      0

Potential function:
     ntf     =       2, ntb     =       1, igb     =       0, nsnb    =      25
     ipol    =       0, gbsa    =       0, iesp    =       0
     dielc   =   1.00000, cut     =  10.00000, intdiel =   1.00000

Frozen or restrained atoms:
     ibelly  =       0, ntr     =       0

Molecular dynamics:
     nstlim  =    500000, nscm    =      1000, nrespa  =         1
     t       =   0.00000, dt      =   0.00200, vlimit  =  -1.00000

Langevin dynamics temperature regulation:
     ig      =  211165
     temp0   = 300.00000, tempi   = 300.00000, gamma_ln=   2.00000

SHAKE:
     ntc     =       2, jfastw  =       0
     tol     =   0.00001

Free energy options:
     icfe    =       1, ifsc    =       0, klambda =       1
     clambda =  0.0479, scalpha =  0.5000, scbeta  = 12.0000
     sceeorder =       2
     dynlmb =  0.0000 logdvdl =       0

Ewald parameters:
     verbose =       0, ew_type =       0, nbflag  =       1, use_pme =       1
     vdwmeth =       1, eedmeth =       1, netfrc  =       1
     Box X =   55.004   Box Y =   55.004   Box Z =   55.004
     Alpha =  109.471   Beta  =  109.471   Gamma =  109.471
     NFFT1 =   56       NFFT2 =   56       NFFT3 =   56
     Cutoff=   10.000   Tol   =0.100E-04
     Ewald Coefficient =  0.27511
     Interpolation order =    4
     TI Mask 1 :1; matches      5 atoms
     TI Mask 2 :2; matches      5 atoms
     TI region 1:       5 atoms
     TI region 2:       5 atoms
Removing charge of       1.4352 from atom       6
Removing charge of      -1.1088 from atom       7
Removing charge of      -1.1088 from atom       8
Removing charge of      -1.1088 from atom       9
Removing charge of      -1.1088 from atom      10
Total charge of  -2.99999999 removed from       5 atoms
     Checking for mismatched coordinates.

--------------------------------------------------------------------------------
   3.  ATOMIC COORDINATES AND VELOCITIES
--------------------------------------------------------------------------------

default_name
 begin time read from input coords =     0.000 ps

 Number of triangulated 3-point waters found:        0

     Sum of charges for TI region  1 =  -2.99999999
     Skip neutralizing charges...

     Sum of charges for TI region  2 =   0.00000000
     Skip neutralizing charges...

--------------------------------------------------------------------------------
   4.  RESULTS
 NSTEP =        0   TIME(PS) =       0.000  TEMP(K) =   194.30  PRESS =     0.0
 Etot   =       -72.2299  EKtot   =         2.8958  EPtot      =       -75.1258
 BOND   =         0.0000  ANGLE   =         6.2592  DIHED      =         0.0000
 1-4 NB =         0.0000  1-4 EEL =         0.0000  VDWAALS    =        -0.0003
 EELEC  =       -81.3847  EHBOND  =         0.0000  RESTRAINT  =         0.0000
 DV/DL  =        85.4827
 ------------------------------------------------------------------------------

      A V E R A G E S   O V E R    1000 S T E P S

 NSTEP =     1000   TIME(PS) =       2.000  TEMP(K) =   310.89  PRESS =     0.0
 Etot   =       -67.8827  EKtot   =         4.6335  EPtot      =       -72.5162
 BOND   =         0.9439  ANGLE   =         7.9004  DIHED      =         0.0000
 1-4 NB =         0.0000  1-4 EEL =         0.0000  VDWAALS    =        -0.0003
 EELEC  =       -81.3602  EHBOND  =         0.0000  RESTRAINT  =         0.0000
 DV/DL  =        85.4571
 ------------------------------------------------------------------------------

      R M S  F L U C T U A T I O N S

 NSTEP =     1000   TIME(PS) =       2.000  TEMP(K) =   104.27  PRESS =     0.0
 Etot   =         1.8716  EKtot   =         1.5541  EPtot      =         1.1256
 BOND   =         0.5425  ANGLE   =         0.9268  DIHED      =         0.0000
 1-4 NB =         0.0000  1-4 EEL =         0.0000  VDWAALS    =         0.0000
 EELEC  =         0.0103  EHBOND  =         0.0000  RESTRAINT  =         0.0000
 DV/DL  =         0.0108
 ------------------------------------------------------------------------------

      A V E R A G E S   O V E R    1000 S T E P S

 NSTEP =     1000   TIME(PS) =       2.000  TEMP(K) =   310.89  PRESS =     0.0
 Etot   =       -67.8827  EKtot   =         4.6335  EPtot      =       -72.5162
 BOND   =         0.9439  ANGLE   =         7.9004  DIHED      =         0.0000
 1-4 NB =         0.0000  1-4 EEL =         0.0000  VDWAALS    =        -0.0003
 EELEC  =       -81.3602  EHBOND  =         0.0000  RESTRAINT  =         0.0000
 DV/DL  =        85.4571
 ------------------------------------------------------------------------------

      R M S  F L U C T U A T I O N S

 NSTEP =     1000   TIME(PS) =       2.000  TEMP(K) =   104.27  PRESS =     0.0
 Etot   =         1.8716  EKtot   =         1.5541  EPtot      =         1.1256
 BOND   =         0.5425  ANGLE   =         0.9268  DIHED      =         0.0000
 1-4 NB =         0.0000  1-4 EEL =         0.0000  VDWAALS    =         0.0000
 EELEC  =         0.0103  EHBOND  =         0.0000  RESTRAINT  =         0.0000
 DV/DL  =         0.0108
 ------------------------------------------------------------------------------

      DV/DL, AVERAGES OVER    1000 STEPS

 NSTEP =     1000   TIME(PS) =       2.000  TEMP(K) =   104.27  PRESS =     0.0
 Etot   =         0.0000  EKtot   =         0.0000  EPtot      =        85.4571
 BOND   =         0.0000  ANGLE   =         0.0000  DIHED      =         0.0000
 1-4 NB =         0.0000  1-4 EEL =         0.0000  VDWAALS    =         0.0000
 EELEC  =        85.4571  EHBOND  =         0.0000  RESTRAINT  =         0.0000
 DV/DL  =        85.4571
 ------------------------------------------------------------------------------

      A V E R A G E S   O V E R    1000 S T E P S

 NSTEP =     2000   TIME(PS) =       4.000  TEMP(K) =   210.78  PRESS =     0.0
 Etot   =       -70.2865  EKtot   =         3.1414  EPtot      =       -73.4279
 BOND   =         0.8206  ANGLE   =         7.1143  DIHED      =         0.0000
 1-4 NB =         0.0000  1-4 EEL =         0.0000  VDWAALS    =        -0.0003
 EELEC  =       -81.3625  EHBOND  =         0.0000  RESTRAINT  =         0.0000
 DV/DL  =        85.4594
 ------------------------------------------------------------------------------

      R M S  F L U C T U A T I O N S

 NSTEP =     2000   TIME(PS) =       4.000  TEMP(K) =    67.32  PRESS =     0.0
 Etot   =         1.0690  EKtot   =         1.0033  EPtot      =         0.6315
 BOND   =         0.5259  ANGLE   =         0.3864  DIHED      =         0.0000
 1-4 NB =         0.0000  1-4 EEL =         0.0000  VDWAALS    =         0.0000
 EELEC  =         0.0118  EHBOND  =         0.0000  RESTRAINT  =         0.0000
 DV/DL  =         0.0124
 ------------------------------------------------------------------------------

      A V E R A G E S   O V E R    1000 S T E P S

 NSTEP =     2000   TIME(PS) =       4.000  TEMP(K) =   210.78  PRESS =     0.0
 Etot   =       -70.2865  EKtot   =         3.1414  EPtot      =       -73.4279
 BOND   =         0.8206  ANGLE   =         7.1143  DIHED      =         0.0000
 1-4 NB =         0.0000  1-4 EEL =         0.0000  VDWAALS    =        -0.0003
 EELEC  =       -81.3625  EHBOND  =         0.0000  RESTRAINT  =         0.0000
 DV/DL  =        85.4594
 ------------------------------------------------------------------------------

      R M S  F L U C T U A T I O N S

 NSTEP =     2000   TIME(PS) =       4.000  TEMP(K) =    67.32  PRESS =     0.0
 Etot   =         1.0690  EKtot   =         1.0033  EPtot      =         0.6315
 BOND   =         0.5259  ANGLE   =         0.3864  DIHED      =         0.0000
 1-4 NB =         0.0000  1-4 EEL =         0.0000  VDWAALS    =         0.0000
 EELEC  =         0.0118  EHBOND  =         0.0000  RESTRAINT  =         0.0000
 DV/DL  =         0.0124
 ------------------------------------------------------------------------------

      DV/DL, AVERAGES OVER    1000 STEPS

 NSTEP =     2000   TIME(PS) =       4.000  TEMP(K) =    67.32  PRESS =     0.0
 Etot   =         0.0000  EKtot   =         0.0000  EPtot      =        85.4594
 BOND   =         0.0000  ANGLE   =         0.0000  DIHED      =         0.0000
 1-4 NB =         0.0000  1-4 EEL =         0.0000  VDWAALS    =         0.0000
 EELEC  =        85.4594  EHBOND  =         0.0000  RESTRAINT  =         0.0000
 DV/DL  =        85.4594
 ------------------------------------------------------------------------------

      A V E R A G E S   O V E R    1000 S T E P S

 NSTEP =   500000   TIME(PS) =    1000.000  TEMP(K) =   223.31  PRESS =     0.0
 Etot   =       -69.7734  EKtot   =         3.3282  EPtot      =       -73.1016
 BOND   =         1.1176  ANGLE   =         7.1433  DIHED      =         0.0000
 1-4 NB =         0.0000  1-4 EEL =         0.0000  VDWAALS    =        -0.0003
 EELEC  =       -81.3623  EHBOND  =         0.0000  RESTRAINT  =         0.0000
 DV/DL  =        85.4592
 ------------------------------------------------------------------------------

      R M S  F L U C T U A T I O N S

 NSTEP =   500000   TIME(PS) =    1000.000  TEMP(K) =    60.22  PRESS =     0.0
 Etot   =         0.8827  EKtot   =         0.8975  EPtot      =         0.8331
 BOND   =         0.6683  ANGLE   =         0.5297  DIHED      =         0.0000
 1-4 NB =         0.0000  1-4 EEL =         0.0000  VDWAALS    =         0.0000
 EELEC  =         0.0109  EHBOND  =         0.0000  RESTRAINT  =         0.0000
 DV/DL  =         0.0114
 ------------------------------------------------------------------------------

      A V E R A G E S   O V E R    1000 S T E P S

 NSTEP =   500000   TIME(PS) =    1000.000  TEMP(K) =   223.31  PRESS =     0.0
 Etot   =       -69.7734  EKtot   =         3.3282  EPtot      =       -73.1016
 BOND   =         1.1176  ANGLE   =         7.1433  DIHED      =         0.0000
 1-4 NB =         0.0000  1-4 EEL =         0.0000  VDWAALS    =        -0.0003
 EELEC  =       -81.3623  EHBOND  =         0.0000  RESTRAINT  =         0.0000
 DV/DL  =        85.4592
 ------------------------------------------------------------------------------

      R M S  F L U C T U A T I O N S

 NSTEP =   500000   TIME(PS) =    1000.000  TEMP(K) =    60.22  PRESS =     0.0
 Etot   =         0.8827  EKtot   =         0.8975  EPtot      =         0.8331
 BOND   =         0.6683  ANGLE   =         0.5297  DIHED      =         0.0000
 1-4 NB =         0.0000  1-4 EEL =         0.0000  VDWAALS    =         0.0000
 EELEC  =         0.0109  EHBOND  =         0.0000  RESTRAINT  =         0.0000
 DV/DL  =         0.0114
 ------------------------------------------------------------------------------

      DV/DL, AVERAGES OVER    1000 STEPS

 NSTEP =   500000   TIME(PS) =    1000.000  TEMP(K) =    60.22  PRESS =     0.0
 Etot   =         0.0000  EKtot   =         0.0000  EPtot      =        85.4592
 BOND   =         0.0000  ANGLE   =         0.0000  DIHED      =         0.0000
 1-4 NB =         0.0000  1-4 EEL =         0.0000  VDWAALS    =         0.0000
 EELEC  =        85.4592  EHBOND  =         0.0000  RESTRAINT  =         0.0000
 DV/DL  =        85.4592
 ------------------------------------------------------------------------------

      A V E R A G E S   O V E R  500000 S T E P S

 NSTEP =   500000   TIME(PS) =    1000.000  TEMP(K) =   298.51  PRESS =     0.0
 Etot   =       -67.9219  EKtot   =         4.4489  EPtot      =       -72.3708
 BOND   =         1.2479  ANGLE   =         7.7431  DIHED      =         0.0000
 1-4 NB =         0.0000  1-4 EEL =         0.0000  VDWAALS    =        -0.0003
 EELEC  =       -81.3614  EHBOND  =         0.0000  RESTRAINT  =         0.0000
 DV/DL  =        85.4583
 ------------------------------------------------------------------------------

      R M S  F L U C T U A T I O N S

 NSTEP =   500000   TIME(PS) =    1000.000  TEMP(K) =   107.98  PRESS =     0.0
 Etot   =         2.0548  EKtot   =         1.6093  EPtot      =         1.2863
 BOND   =         0.8864  ANGLE   =         0.9356  DIHED      =         0.0000
 1-4 NB =         0.0000  1-4 EEL =         0.0000  VDWAALS    =         0.0000
 EELEC  =         0.0106  EHBOND  =         0.0000  RESTRAINT  =         0.0000
 DV/DL  =         0.0111
 ------------------------------------------------------------------------------

      A V E R A G E S   O V E R  500000 S T E P S

 NSTEP =   500000   TIME(PS) =    1000.000  TEMP(K) =   298.51  PRESS =     0.0
 Etot   =       -67.9219  EKtot   =         4.4489  EPtot      =       -72.3708
 BOND   =         1.2479  ANGLE   =         7.7431  DIHED      =         0.0000
 1-4 NB =         0.0000  1-4 EEL =         0.0000  VDWAALS    =        -0.0003
 EELEC  =       -81.3614  EHBOND  =         0.0000  RESTRAINT  =         0.0000
 DV/DL  =        85.4583
 ------------------------------------------------------------------------------

      R M S  F L U C T U A T I O N S

 NSTEP =   500000   TIME(PS) =    1000.000  TEMP(K) =   107.98  PRESS =     0.0
 Etot   =         2.0548  EKtot   =         1.6093  EPtot      =         1.2863
 BOND   =         0.8864  ANGLE   =         0.9356  DIHED      =         0.0000
 1-4 NB =         0.0000  1-4 EEL =         0.0000  VDWAALS    =         0.0000
 EELEC  =         0.0106  EHBOND  =         0.0000  RESTRAINT  =         0.0000
 DV/DL  =         0.0111
 ------------------------------------------------------------------------------

      DV/DL, AVERAGES OVER  500000 STEPS

 NSTEP =   500000   TIME(PS) =    1000.000  TEMP(K) =   107.98  PRESS =     0.0
 Etot   =         0.0000  EKtot   =         0.0000  EPtot      =        85.4583
 BOND   =         0.0000  ANGLE   =         0.0000  DIHED      =         0.0000
 1-4 NB =         0.0000  1-4 EEL =         0.0000  VDWAALS    =         0.0000
 EELEC  =        85.4583  EHBOND  =         0.0000  RESTRAINT  =         0.0000
 DV/DL  =        85.4583
 ------------------------------------------------------------------------------
