-------------------------------------------------------
          Amber 20 PMEMD                              2020
          -------------------------------------------------------

  [-O]verwriting output

File Assignments:

 Here is the input file:

 &cntrl
   nstlim=1000000, nscm=1000,
   ntx=1, irest=0, ntpr=1000,
   tempi=300.0, temp0=300.0, ntt=3, gamma_ln=2.0,
   ntb=1, igb=0, cut=10.0,
   dt=0.001, ig=-1,
   ntc=1, ntf=1,
   iwrap=0,
   ntwr=1000, ntwx=50000, ntave=1000,
   ioutfm=1, ntwv=-1,
   ifsc = 0, icfe=1,
   clambda=0.88495,
   timask1=':1',
   timask2=':2', crgmask = ':2',
/

Note: ig = -1. Setting random seed to   697359 based on wallclock time in
      microseconds.

--------------------------------------------------------------------------------
   1.  RESOURCE   USE:
--------------------------------------------------------------------------------

 getting box info from netcdf restart file
 NATOM  =      10 NTYPES =       4 NBONH =       0 MBONA  =       8
 NTHETH =       0 MTHETA =      12 NPHIH =       0 MPHIA  =       0
 NHPARM =       0 NPARM  =       0 NNB   =      22 NRES   =       2
 NBONA  =       8 NTHETA =      12 NPHIA =       0 NUMBND =       1
 NUMANG =       1 NPTRA  =       0 NATYP =       4 NPHB   =       1
 IFBOX  =       2 NMXRS  =       5 IFCAP =       0 NEXTRA =       0
 NCOPY  =       0

     BOX TYPE: TRUNCATED OCTAHEDRON

--------------------------------------------------------------------------------
   2.  CONTROL  DATA  FOR  THE  RUN
--------------------------------------------------------------------------------

default_name

General flags:
     imin    =       0, nmropt  =       0

Nature and format of input:
     ntx     =       1, irest   =       0, ntrx    =       1

Nature and format of output:
     ntxo    =       2, ntpr    =    1000, ntrx    =       1, ntwr    =    1000
     iwrap   =       0, ntwx    =   50000, ntwv    =      -1, ntwe    =       0
     ioutfm  =       1, ntwprt  =       0, idecomp =       0, rbornstat=      0

Potential function:
     ntf     =       1, ntb     =       1, igb     =       0, nsnb    =      25
     ipol    =       0, gbsa    =       0, iesp    =       0
     dielc   =   1.00000, cut     =  10.00000, intdiel =   1.00000

Frozen or restrained atoms:
     ibelly  =       0, ntr     =       0

Molecular dynamics:
     nstlim  =   1000000, nscm    =      1000, nrespa  =         1
     t       =   0.00000, dt      =   0.00100, vlimit  =  -1.00000

Langevin dynamics temperature regulation:
     ig      =  697359
     temp0   = 300.00000, tempi   = 300.00000, gamma_ln=   2.00000

Free energy options:
     icfe    =       1, ifsc    =       0, klambda =       1
     clambda =  0.8850, scalpha =  0.5000, scbeta  = 12.0000
     sceeorder =       2
     dynlmb =  0.0000 logdvdl =       0

Ewald parameters:
     verbose =       0, ew_type =       0, nbflag  =       1, use_pme =       1
     vdwmeth =       1, eedmeth =       1, netfrc  =       1
     Box X =   55.004   Box Y =   55.004   Box Z =   55.004
     Alpha =  109.471   Beta  =  109.471   Gamma =  109.471
     NFFT1 =   56       NFFT2 =   56       NFFT3 =   56
     Cutoff=   10.000   Tol   =0.100E-04
     Ewald Coefficient =  0.27511
     Interpolation order =    4
     TI Mask 1 :1; matches      5 atoms
     TI Mask 2 :2; matches      5 atoms
     TI region 1:       5 atoms
     TI region 2:       5 atoms
Removing charge of       1.4352 from atom       6
Removing charge of      -1.1088 from atom       7
Removing charge of      -1.1088 from atom       8
Removing charge of      -1.1088 from atom       9
Removing charge of      -1.1088 from atom      10
Total charge of  -2.99999999 removed from       5 atoms
     Checking for mismatched coordinates.

--------------------------------------------------------------------------------
   3.  ATOMIC COORDINATES AND VELOCITIES
--------------------------------------------------------------------------------

default_name
 begin time read from input coords =     0.000 ps

 Number of triangulated 3-point waters found:        0

     Sum of charges for TI region  1 =  -2.99999999
     Skip neutralizing charges...

     Sum of charges for TI region  2 =   0.00000000
     Skip neutralizing charges...

--------------------------------------------------------------------------------
   4.  RESULTS
 NSTEP =        0   TIME(PS) =       0.000  TEMP(K) =   189.35  PRESS =     0.0
 Etot   =        -0.7487  EKtot   =         2.8220  EPtot      =        -3.5707
 BOND   =         0.0000  ANGLE   =         6.2592  DIHED      =         0.0000
 1-4 NB =         0.0000  1-4 EEL =         0.0000  VDWAALS    =        -0.0003
 EELEC  =        -9.8296  EHBOND  =         0.0000  RESTRAINT  =         0.0000
 DV/DL  =        85.4377
 ------------------------------------------------------------------------------

      A V E R A G E S   O V E R    1000 S T E P S

 NSTEP =     1000   TIME(PS) =       1.000  TEMP(K) =   173.46  PRESS =     0.0
 Etot   =         0.6285  EKtot   =         2.5853  EPtot      =        -1.9567
 BOND   =         0.8633  ANGLE   =         7.0115  DIHED      =         0.0000
 1-4 NB =         0.0000  1-4 EEL =         0.0000  VDWAALS    =        -0.0003
 EELEC  =        -9.8312  EHBOND  =         0.0000  RESTRAINT  =         0.0000
 DV/DL  =        85.4530
 ------------------------------------------------------------------------------

      R M S  F L U C T U A T I O N S

 NSTEP =     1000   TIME(PS) =       1.000  TEMP(K) =    55.61  PRESS =     0.0
 Etot   =         0.8039  EKtot   =         0.8288  EPtot      =         0.6303
 BOND   =         0.4571  ANGLE   =         0.4753  DIHED      =         0.0000
 1-4 NB =         0.0000  1-4 EEL =         0.0000  VDWAALS    =         0.0000
 EELEC  =         0.0012  EHBOND  =         0.0000  RESTRAINT  =         0.0000
 DV/DL  =         0.0234
 ------------------------------------------------------------------------------

      A V E R A G E S   O V E R    1000 S T E P S

 NSTEP =     1000   TIME(PS) =       1.000  TEMP(K) =   173.38  PRESS =     0.0
 Etot   =         0.6273  EKtot   =         2.5840  EPtot      =        -1.9567
 BOND   =         0.8633  ANGLE   =         7.0115  DIHED      =         0.0000
 1-4 NB =         0.0000  1-4 EEL =         0.0000  VDWAALS    =        -0.0003
 EELEC  =        -9.8312  EHBOND  =         0.0000  RESTRAINT  =         0.0000
 DV/DL  =        85.4530
 ------------------------------------------------------------------------------

      R M S  F L U C T U A T I O N S

 NSTEP =     1000   TIME(PS) =       1.000  TEMP(K) =    55.59  PRESS =     0.0
 Etot   =         0.8029  EKtot   =         0.8285  EPtot      =         0.6303
 BOND   =         0.4571  ANGLE   =         0.4753  DIHED      =         0.0000
 1-4 NB =         0.0000  1-4 EEL =         0.0000  VDWAALS    =         0.0000
 EELEC  =         0.0012  EHBOND  =         0.0000  RESTRAINT  =         0.0000
 DV/DL  =         0.0234
 ------------------------------------------------------------------------------

      DV/DL, AVERAGES OVER    1000 STEPS

 NSTEP =     1000   TIME(PS) =       1.000  TEMP(K) =    55.59  PRESS =     0.0
 Etot   =         0.0000  EKtot   =         0.0000  EPtot      =        85.4530
 BOND   =         0.0013  ANGLE   =         0.0004  DIHED      =         0.0000
 1-4 NB =         0.0000  1-4 EEL =         0.0000  VDWAALS    =         0.0000
 EELEC  =        85.4514  EHBOND  =         0.0000  RESTRAINT  =         0.0000
 DV/DL  =        85.4530
 ------------------------------------------------------------------------------

      A V E R A G E S   O V E R    1000 S T E P S

 NSTEP =     2000   TIME(PS) =       2.000  TEMP(K) =   309.72  PRESS =     0.0
 Etot   =         2.8710  EKtot   =         4.6160  EPtot      =        -1.7450
 BOND   =         0.9374  ANGLE   =         7.1499  DIHED      =         0.0000
 1-4 NB =         0.0000  1-4 EEL =         0.0000  VDWAALS    =        -0.0003
 EELEC  =        -9.8320  EHBOND  =         0.0000  RESTRAINT  =         0.0000
 DV/DL  =        85.4586
 ------------------------------------------------------------------------------

      R M S  F L U C T U A T I O N S

 NSTEP =     2000   TIME(PS) =       2.000  TEMP(K) =    97.54  PRESS =     0.0
 Etot   =         1.5668  EKtot   =         1.4537  EPtot      =         0.6835
 BOND   =         0.5204  ANGLE   =         0.6475  DIHED      =         0.0000
 1-4 NB =         0.0000  1-4 EEL =         0.0000  VDWAALS    =         0.0000
 EELEC  =         0.0013  EHBOND  =         0.0000  RESTRAINT  =         0.0000
 DV/DL  =         0.0247
 ------------------------------------------------------------------------------

      A V E R A G E S   O V E R    1000 S T E P S

 NSTEP =     2000   TIME(PS) =       2.000  TEMP(K) =   309.60  PRESS =     0.0
 Etot   =         2.8692  EKtot   =         4.6142  EPtot      =        -1.7450
 BOND   =         0.9374  ANGLE   =         7.1499  DIHED      =         0.0000
 1-4 NB =         0.0000  1-4 EEL =         0.0000  VDWAALS    =        -0.0003
 EELEC  =        -9.8320  EHBOND  =         0.0000  RESTRAINT  =         0.0000
 DV/DL  =        85.4586
 ------------------------------------------------------------------------------

      R M S  F L U C T U A T I O N S

 NSTEP =     2000   TIME(PS) =       2.000  TEMP(K) =    97.32  PRESS =     0.0
 Etot   =         1.5655  EKtot   =         1.4504  EPtot      =         0.6835
 BOND   =         0.5204  ANGLE   =         0.6475  DIHED      =         0.0000
 1-4 NB =         0.0000  1-4 EEL =         0.0000  VDWAALS    =         0.0000
 EELEC  =         0.0013  EHBOND  =         0.0000  RESTRAINT  =         0.0000
 DV/DL  =         0.0247
 ------------------------------------------------------------------------------

      DV/DL, AVERAGES OVER    1000 STEPS

 NSTEP =     2000   TIME(PS) =       2.000  TEMP(K) =    97.32  PRESS =     0.0
 Etot   =         0.0000  EKtot   =         0.0000  EPtot      =        85.4586
 BOND   =         0.0004  ANGLE   =        -0.0003  DIHED      =         0.0000
 1-4 NB =         0.0000  1-4 EEL =         0.0000  VDWAALS    =         0.0000
 EELEC  =        85.4585  EHBOND  =         0.0000  RESTRAINT  =         0.0000
 DV/DL  =        85.4586
 ------------------------------------------------------------------------------

      A V E R A G E S   O V E R    1000 S T E P S

 NSTEP =  1000000   TIME(PS) =    1000.000  TEMP(K) =   346.23  PRESS =     0.0
 Etot   =         4.6828  EKtot   =         5.1602  EPtot      =        -0.4774
 BOND   =         1.5417  ANGLE   =         7.8125  DIHED      =         0.0000
 1-4 NB =         0.0000  1-4 EEL =         0.0000  VDWAALS    =        -0.0003
 EELEC  =        -9.8313  EHBOND  =         0.0000  RESTRAINT  =         0.0000
 DV/DL  =        85.4511
 ------------------------------------------------------------------------------

      R M S  F L U C T U A T I O N S

 NSTEP =  1000000   TIME(PS) =    1000.000  TEMP(K) =    82.73  PRESS =     0.0
 Etot   =         0.7300  EKtot   =         1.2330  EPtot      =         1.0632
 BOND   =         0.7665  ANGLE   =         0.8789  DIHED      =         0.0000
 1-4 NB =         0.0000  1-4 EEL =         0.0000  VDWAALS    =         0.0000
 EELEC  =         0.0011  EHBOND  =         0.0000  RESTRAINT  =         0.0000
 DV/DL  =         0.0304
 ------------------------------------------------------------------------------

      A V E R A G E S   O V E R    1000 S T E P S

 NSTEP =  1000000   TIME(PS) =    1000.000  TEMP(K) =   345.85  PRESS =     0.0
 Etot   =         4.6772  EKtot   =         5.1546  EPtot      =        -0.4774
 BOND   =         1.5417  ANGLE   =         7.8125  DIHED      =         0.0000
 1-4 NB =         0.0000  1-4 EEL =         0.0000  VDWAALS    =        -0.0003
 EELEC  =        -9.8313  EHBOND  =         0.0000  RESTRAINT  =         0.0000
 DV/DL  =        85.4511
 ------------------------------------------------------------------------------

      R M S  F L U C T U A T I O N S

 NSTEP =  1000000   TIME(PS) =    1000.000  TEMP(K) =    82.61  PRESS =     0.0
 Etot   =         0.7361  EKtot   =         1.2311  EPtot      =         1.0632
 BOND   =         0.7665  ANGLE   =         0.8789  DIHED      =         0.0000
 1-4 NB =         0.0000  1-4 EEL =         0.0000  VDWAALS    =         0.0000
 EELEC  =         0.0011  EHBOND  =         0.0000  RESTRAINT  =         0.0000
 DV/DL  =         0.0304
 ------------------------------------------------------------------------------

      DV/DL, AVERAGES OVER    1000 STEPS

 NSTEP =  1000000   TIME(PS) =    1000.000  TEMP(K) =    82.61  PRESS =     0.0
 Etot   =         0.0000  EKtot   =         0.0000  EPtot      =        85.4511
 BOND   =        -0.0008  ANGLE   =        -0.0005  DIHED      =         0.0000
 1-4 NB =         0.0000  1-4 EEL =         0.0000  VDWAALS    =         0.0000
 EELEC  =        85.4524  EHBOND  =         0.0000  RESTRAINT  =         0.0000
 DV/DL  =        85.4511
 ------------------------------------------------------------------------------

      A V E R A G E S   O V E R 1000000 S T E P S

 NSTEP =  1000000   TIME(PS) =    1000.000  TEMP(K) =   308.77  PRESS =     0.0
 Etot   =         3.8778  EKtot   =         4.6018  EPtot      =        -0.7241
 BOND   =         1.2922  ANGLE   =         7.8160  DIHED      =         0.0000
 1-4 NB =         0.0000  1-4 EEL =         0.0000  VDWAALS    =        -0.0003
 EELEC  =        -9.8320  EHBOND  =         0.0000  RESTRAINT  =         0.0000
 DV/DL  =        85.4585
 ------------------------------------------------------------------------------

      R M S  F L U C T U A T I O N S

 NSTEP =  1000000   TIME(PS) =    1000.000  TEMP(K) =   113.15  PRESS =     0.0
 Etot   =         2.1544  EKtot   =         1.6864  EPtot      =         1.3418
 BOND   =         0.9159  ANGLE   =         0.9776  DIHED      =         0.0000
 1-4 NB =         0.0000  1-4 EEL =         0.0000  VDWAALS    =         0.0000
 EELEC  =         0.0013  EHBOND  =         0.0000  RESTRAINT  =         0.0000
 DV/DL  =         0.0278
 ------------------------------------------------------------------------------

      A V E R A G E S   O V E R 1000000 S T E P S

 NSTEP =  1000000   TIME(PS) =    1000.000  TEMP(K) =   308.76  PRESS =     0.0
 Etot   =         3.8777  EKtot   =         4.6017  EPtot      =        -0.7241
 BOND   =         1.2922  ANGLE   =         7.8160  DIHED      =         0.0000
 1-4 NB =         0.0000  1-4 EEL =         0.0000  VDWAALS    =        -0.0003
 EELEC  =        -9.8320  EHBOND  =         0.0000  RESTRAINT  =         0.0000
 DV/DL  =        85.4585
 ------------------------------------------------------------------------------

      R M S  F L U C T U A T I O N S

 NSTEP =  1000000   TIME(PS) =    1000.000  TEMP(K) =   113.15  PRESS =     0.0
 Etot   =         2.1544  EKtot   =         1.6864  EPtot      =         1.3418
 BOND   =         0.9159  ANGLE   =         0.9776  DIHED      =         0.0000
 1-4 NB =         0.0000  1-4 EEL =         0.0000  VDWAALS    =         0.0000
 EELEC  =         0.0013  EHBOND  =         0.0000  RESTRAINT  =         0.0000
 DV/DL  =         0.0278
 ------------------------------------------------------------------------------

      DV/DL, AVERAGES OVER 1000000 STEPS

 NSTEP =  1000000   TIME(PS) =    1000.000  TEMP(K) =   113.15  PRESS =     0.0
 Etot   =         0.0000  EKtot   =         0.0000  EPtot      =        85.4585
 BOND   =         0.0000  ANGLE   =         0.0000  DIHED      =         0.0000
 1-4 NB =         0.0000  1-4 EEL =         0.0000  VDWAALS    =         0.0000
 EELEC  =        85.4585  EHBOND  =         0.0000  RESTRAINT  =         0.0000
 DV/DL  =        85.4585
 ------------------------------------------------------------------------------
