-------------------------------------------------------
          Amber 20 PMEMD                              2020
          -------------------------------------------------------

  [-O]verwriting output

File Assignments:

 Here is the input file:

 &cntrl
   nstlim=500000, nscm=1000,
   ntx=5, irest=1, ntpr=1000,
   tempi=300.0, temp0=300.0, ntt=3, gamma_ln=2.0,
   ntp=1, pres0=1.01325, taup=5.0,
   ntb=2, igb=0, cut=10.0,
   dt=0.002, ig=-1,
   ntc=2, ntf=2,
   iwrap=0,
   ntwr=1000, ntwx=50000, ntave=1000,
   ioutfm=1, ntwv=-1,
   ifsc = 0, icfe=1,
   clambda=0.31608,
   timask1=':1',
   timask2=':2', crgmask = ':2',
/

Note: ig = -1. Setting random seed to   221008 based on wallclock time in
      microseconds.

--------------------------------------------------------------------------------
   1.  RESOURCE   USE:
--------------------------------------------------------------------------------

 getting box info from netcdf restart file
 NATOM  =   11419 NTYPES =       4 NBONH =   11409 MBONA  =       8
 NTHETH =       0 MTHETA =      12 NPHIH =       0 MPHIA  =       0
 NHPARM =       0 NPARM  =       0 NNB   =   15234 NRES   =    3805
 NBONA  =       8 NTHETA =      12 NPHIA =       0 NUMBND =       3
 NUMANG =       1 NPTRA  =       0 NATYP =       4 NPHB   =       1
 IFBOX  =       2 NMXRS  =       5 IFCAP =       0 NEXTRA =       0
 NCOPY  =       0

     BOX TYPE: TRUNCATED OCTAHEDRON

--------------------------------------------------------------------------------
   2.  CONTROL  DATA  FOR  THE  RUN
--------------------------------------------------------------------------------

default_name

General flags:
     imin    =       0, nmropt  =       0

Nature and format of input:
     ntx     =       5, irest   =       1, ntrx    =       1

Nature and format of output:
     ntxo    =       2, ntpr    =    1000, ntrx    =       1, ntwr    =    1000
     iwrap   =       0, ntwx    =   50000, ntwv    =      -1, ntwe    =       0
     ioutfm  =       1, ntwprt  =       0, idecomp =       0, rbornstat=      0

Potential function:
     ntf     =       2, ntb     =       2, igb     =       0, nsnb    =      25
     ipol    =       0, gbsa    =       0, iesp    =       0
     dielc   =   1.00000, cut     =  10.00000, intdiel =   1.00000

Frozen or restrained atoms:
     ibelly  =       0, ntr     =       0

Molecular dynamics:
     nstlim  =    500000, nscm    =      1000, nrespa  =         1
     t       =   0.00000, dt      =   0.00200, vlimit  =  -1.00000

Langevin dynamics temperature regulation:
     ig      =  221008
     temp0   = 300.00000, tempi   = 300.00000, gamma_ln=   2.00000

Pressure regulation:
     ntp     =       1
     pres0   =   1.01325, comp    =  44.60000, taup    =   5.00000

SHAKE:
     ntc     =       2, jfastw  =       0
     tol     =   0.00001

Free energy options:
     icfe    =       1, ifsc    =       0, klambda =       1
     clambda =  0.3161, scalpha =  0.5000, scbeta  = 12.0000
     sceeorder =       2
     dynlmb =  0.0000 logdvdl =       0

Ewald parameters:
     verbose =       0, ew_type =       0, nbflag  =       1, use_pme =       1
     vdwmeth =       1, eedmeth =       1, netfrc  =       1
     Box X =   55.004   Box Y =   55.004   Box Z =   55.004
     Alpha =  109.471   Beta  =  109.471   Gamma =  109.471
     NFFT1 =   56       NFFT2 =   56       NFFT3 =   56
     Cutoff=   10.000   Tol   =0.100E-04
     Ewald Coefficient =  0.27511
     Interpolation order =    4
     TI Mask 1 :1; matches      5 atoms
     TI Mask 2 :2; matches      5 atoms
     TI region 1:   11414 atoms
     TI region 2:   11414 atoms
Removing charge of       1.4352 from atom       6
Removing charge of      -1.1088 from atom       7
Removing charge of      -1.1088 from atom       8
Removing charge of      -1.1088 from atom       9
Removing charge of      -1.1088 from atom      10
Total charge of  -2.99999999 removed from       5 atoms
     Checking for mismatched coordinates.

--------------------------------------------------------------------------------
   3.  ATOMIC COORDINATES AND VELOCITIES
--------------------------------------------------------------------------------

default_name
 begin time read from input coords =   200.000 ps

 Number of triangulated 3-point waters found:     3803

     Sum of charges for TI region  1 =  -2.99999999
     Skip neutralizing charges...

     Sum of charges for TI region  2 =   0.00000000
     Skip neutralizing charges...

--------------------------------------------------------------------------------
   4.  RESULTS
 NSTEP =     1000   TIME(PS) =     202.000  TEMP(K) =   299.48  PRESS = -1248.9
 Etot   =    -29117.0651  EKtot   =      6794.1713  EPtot      =    -35911.2364
 BOND   =         0.2501  ANGLE   =         8.9707  DIHED      =         0.0000
 1-4 NB =         0.0000  1-4 EEL =         0.0000  VDWAALS    =      5030.2116
 EELEC  =    -40950.6688  EHBOND  =         0.0000  RESTRAINT  =         0.0000
 EKCMT  =      3408.1744  VIRIAL  =      6799.1637  VOLUME     =    125752.9257
                                                    Density    =         0.9060
 DV/DL  =       871.8546
 ------------------------------------------------------------------------------

      A V E R A G E S   O V E R    1000 S T E P S

 NSTEP =     1000   TIME(PS) =     202.000  TEMP(K) =   301.16  PRESS = -1038.1
 Etot   =    -28990.6644  EKtot   =      6832.3402  EPtot      =    -35823.0046
 BOND   =         1.4726  ANGLE   =         7.6921  DIHED      =         0.0000
 1-4 NB =         0.0000  1-4 EEL =         0.0000  VDWAALS    =      5162.6906
 EELEC  =    -40994.8600  EHBOND  =         0.0000  RESTRAINT  =         0.0000
 EKCMT  =      3437.3075  VIRIAL  =      6282.0499  VOLUME     =    126859.8869
                                                    Density    =         0.8981
 DV/DL  =       843.9929
 ------------------------------------------------------------------------------

      R M S  F L U C T U A T I O N S

 NSTEP =     1000   TIME(PS) =     202.000  TEMP(K) =     2.74  PRESS =   199.5
 Etot   =        79.4286  EKtot   =        62.2645  EPtot      =        76.2938
 BOND   =         1.0325  ANGLE   =         0.8557  DIHED      =         0.0000
 1-4 NB =         0.0000  1-4 EEL =         0.0000  VDWAALS    =        98.4986
 EELEC  =       147.2512  EHBOND  =         0.0000  RESTRAINT  =         0.0000
 EKCMT  =        47.2036  VIRIAL  =       532.1598  VOLUME     =       672.6944
                                                    Density    =         0.0048
 DV/DL  =        20.5544
 ------------------------------------------------------------------------------

      A V E R A G E S   O V E R    1000 S T E P S

 NSTEP =     1000   TIME(PS) =     202.000  TEMP(K) =   301.16  PRESS = -1038.1
 Etot   =    -28990.6644  EKtot   =      6832.3402  EPtot      =    -35823.0046
 BOND   =         1.4726  ANGLE   =         7.6921  DIHED      =         0.0000
 1-4 NB =         0.0000  1-4 EEL =         0.0000  VDWAALS    =      5162.6906
 EELEC  =    -40994.8600  EHBOND  =         0.0000  RESTRAINT  =         0.0000
 EKCMT  =      3437.3075  VIRIAL  =      6282.0499  VOLUME     =    126859.8869
                                                    Density    =         0.8981
 DV/DL  =       843.9929
 ------------------------------------------------------------------------------

      R M S  F L U C T U A T I O N S

 NSTEP =     1000   TIME(PS) =     202.000  TEMP(K) =     2.74  PRESS =   199.5
 Etot   =        79.4286  EKtot   =        62.2645  EPtot      =        76.2938
 BOND   =         1.0325  ANGLE   =         0.8557  DIHED      =         0.0000
 1-4 NB =         0.0000  1-4 EEL =         0.0000  VDWAALS    =        98.4986
 EELEC  =       147.2512  EHBOND  =         0.0000  RESTRAINT  =         0.0000
 EKCMT  =        47.2036  VIRIAL  =       532.1598  VOLUME     =       672.6944
                                                    Density    =         0.0048
 DV/DL  =        20.5544
 ------------------------------------------------------------------------------

      DV/DL, AVERAGES OVER    1000 STEPS

 NSTEP =     1000   TIME(PS) =     202.000  TEMP(K) =     2.74  PRESS =     0.0
 Etot   =         0.0000  EKtot   =         0.0000  EPtot      =       843.9929
 BOND   =         0.0000  ANGLE   =         0.0000  DIHED      =         0.0000
 1-4 NB =         0.0000  1-4 EEL =         0.0000  VDWAALS    =         0.0000
 EELEC  =       843.9929  EHBOND  =         0.0000  RESTRAINT  =         0.0000
 EKCMT  =         0.0000  VIRIAL  =         0.0000  VOLUME     =         0.0000
                                                    Density    =         0.0000
 DV/DL  =       843.9929
 ------------------------------------------------------------------------------

      A V E R A G E S   O V E R    1000 S T E P S

 NSTEP =     2000   TIME(PS) =     204.000  TEMP(K) =   301.82  PRESS =  -862.9
 Etot   =    -29110.7680  EKtot   =      6847.2357  EPtot      =    -35958.0037
 BOND   =         1.6435  ANGLE   =         7.5827  DIHED      =         0.0000
 1-4 NB =         0.0000  1-4 EEL =         0.0000  VDWAALS    =      5209.0054
 EELEC  =    -41176.2353  EHBOND  =         0.0000  RESTRAINT  =         0.0000
 EKCMT  =      3433.7293  VIRIAL  =      5758.6670  VOLUME     =    124730.8548
                                                    Density    =         0.9134
 DV/DL  =       840.4692
 ------------------------------------------------------------------------------

      R M S  F L U C T U A T I O N S

 NSTEP =     2000   TIME(PS) =     204.000  TEMP(K) =     2.29  PRESS =   174.2
 Etot   =        50.6250  EKtot   =        51.8807  EPtot      =        58.5828
 BOND   =         1.1516  ANGLE   =         0.7841  DIHED      =         0.0000
 1-4 NB =         0.0000  1-4 EEL =         0.0000  VDWAALS    =        85.9470
 EELEC  =       114.7116  EHBOND  =         0.0000  RESTRAINT  =         0.0000
 EKCMT  =        41.0606  VIRIAL  =       483.7477  VOLUME     =       554.9970
                                                    Density    =         0.0041
 DV/DL  =        27.1712
 ------------------------------------------------------------------------------

      A V E R A G E S   O V E R    1000 S T E P S

 NSTEP =     2000   TIME(PS) =     204.000  TEMP(K) =   301.82  PRESS =  -862.9
 Etot   =    -29110.7680  EKtot   =      6847.2357  EPtot      =    -35958.0037
 BOND   =         1.6435  ANGLE   =         7.5827  DIHED      =         0.0000
 1-4 NB =         0.0000  1-4 EEL =         0.0000  VDWAALS    =      5209.0054
 EELEC  =    -41176.2353  EHBOND  =         0.0000  RESTRAINT  =         0.0000
 EKCMT  =      3433.7293  VIRIAL  =      5758.6670  VOLUME     =    124730.8548
                                                    Density    =         0.9134
 DV/DL  =       840.4692
 ------------------------------------------------------------------------------

      R M S  F L U C T U A T I O N S

 NSTEP =     2000   TIME(PS) =     204.000  TEMP(K) =     2.29  PRESS =   174.2
 Etot   =        50.6250  EKtot   =        51.8807  EPtot      =        58.5828
 BOND   =         1.1516  ANGLE   =         0.7841  DIHED      =         0.0000
 1-4 NB =         0.0000  1-4 EEL =         0.0000  VDWAALS    =        85.9470
 EELEC  =       114.7116  EHBOND  =         0.0000  RESTRAINT  =         0.0000
 EKCMT  =        41.0606  VIRIAL  =       483.7477  VOLUME     =       554.9970
                                                    Density    =         0.0041
 DV/DL  =        27.1712
 ------------------------------------------------------------------------------

      DV/DL, AVERAGES OVER    1000 STEPS

 NSTEP =     2000   TIME(PS) =     204.000  TEMP(K) =     2.29  PRESS =     0.0
 Etot   =         0.0000  EKtot   =         0.0000  EPtot      =       840.4692
 BOND   =         0.0000  ANGLE   =         0.0000  DIHED      =         0.0000
 1-4 NB =         0.0000  1-4 EEL =         0.0000  VDWAALS    =         0.0000
 EELEC  =       840.4692  EHBOND  =         0.0000  RESTRAINT  =         0.0000
 EKCMT  =         0.0000  VIRIAL  =         0.0000  VOLUME     =         0.0000
                                                    Density    =         0.0000
 DV/DL  =       840.4692
 ------------------------------------------------------------------------------

      A V E R A G E S   O V E R    1000 S T E P S

 NSTEP =   500000   TIME(PS) =    1200.000  TEMP(K) =   300.69  PRESS =    13.7
 Etot   =    -29758.4788  EKtot   =      6821.7233  EPtot      =    -36580.2020
 BOND   =         1.7183  ANGLE   =         7.6848  DIHED      =         0.0000
 1-4 NB =         0.0000  1-4 EEL =         0.0000  VDWAALS    =      5426.4208
 EELEC  =    -42016.0260  EHBOND  =         0.0000  RESTRAINT  =         0.0000
 EKCMT  =      3411.0281  VIRIAL  =      3376.8614  VOLUME     =    115538.4652
                                                    Density    =         0.9861
 DV/DL  =       834.1367
 ------------------------------------------------------------------------------

      R M S  F L U C T U A T I O N S

 NSTEP =   500000   TIME(PS) =    1200.000  TEMP(K) =     2.31  PRESS =   139.3
 Etot   =        52.1944  EKtot   =        52.3292  EPtot      =        69.6425
 BOND   =         1.0035  ANGLE   =         1.0072  DIHED      =         0.0000
 1-4 NB =         0.0000  1-4 EEL =         0.0000  VDWAALS    =        74.0070
 EELEC  =       110.2796  EHBOND  =         0.0000  RESTRAINT  =         0.0000
 EKCMT  =        44.0752  VIRIAL  =       356.7434  VOLUME     =        13.4383
                                                    Density    =         0.0001
 DV/DL  =        22.5386
 ------------------------------------------------------------------------------

      A V E R A G E S   O V E R    1000 S T E P S

 NSTEP =   500000   TIME(PS) =    1200.000  TEMP(K) =   300.69  PRESS =    13.7
 Etot   =    -29758.4788  EKtot   =      6821.7233  EPtot      =    -36580.2020
 BOND   =         1.7183  ANGLE   =         7.6848  DIHED      =         0.0000
 1-4 NB =         0.0000  1-4 EEL =         0.0000  VDWAALS    =      5426.4208
 EELEC  =    -42016.0260  EHBOND  =         0.0000  RESTRAINT  =         0.0000
 EKCMT  =      3411.0281  VIRIAL  =      3376.8614  VOLUME     =    115538.4652
                                                    Density    =         0.9861
 DV/DL  =       834.1367
 ------------------------------------------------------------------------------

      R M S  F L U C T U A T I O N S

 NSTEP =   500000   TIME(PS) =    1200.000  TEMP(K) =     2.31  PRESS =   139.3
 Etot   =        52.1944  EKtot   =        52.3292  EPtot      =        69.6425
 BOND   =         1.0035  ANGLE   =         1.0072  DIHED      =         0.0000
 1-4 NB =         0.0000  1-4 EEL =         0.0000  VDWAALS    =        74.0070
 EELEC  =       110.2796  EHBOND  =         0.0000  RESTRAINT  =         0.0000
 EKCMT  =        44.0752  VIRIAL  =       356.7434  VOLUME     =        13.4383
                                                    Density    =         0.0001
 DV/DL  =        22.5386
 ------------------------------------------------------------------------------

      DV/DL, AVERAGES OVER    1000 STEPS

 NSTEP =   500000   TIME(PS) =    1200.000  TEMP(K) =     2.31  PRESS =     0.0
 Etot   =         0.0000  EKtot   =         0.0000  EPtot      =       834.1367
 BOND   =         0.0000  ANGLE   =         0.0000  DIHED      =         0.0000
 1-4 NB =         0.0000  1-4 EEL =         0.0000  VDWAALS    =         0.0000
 EELEC  =       834.1367  EHBOND  =         0.0000  RESTRAINT  =         0.0000
 EKCMT  =         0.0000  VIRIAL  =         0.0000  VOLUME     =         0.0000
                                                    Density    =         0.0000
 DV/DL  =       834.1367
 ------------------------------------------------------------------------------

      A V E R A G E S   O V E R  500000 S T E P S

 NSTEP =   500000   TIME(PS) =    1200.000  TEMP(K) =   300.12  PRESS =   -10.5
 Etot   =    -29805.1474  EKtot   =      6808.8559  EPtot      =    -36614.0034
 BOND   =         1.4189  ANGLE   =         7.7649  DIHED      =         0.0000
 1-4 NB =         0.0000  1-4 EEL =         0.0000  VDWAALS    =      5439.3126
 EELEC  =    -42062.4997  EHBOND  =         0.0000  RESTRAINT  =         0.0000
 EKCMT  =      3415.7096  VIRIAL  =      3443.4977  VOLUME     =    115755.5472
                                                    Density    =         0.9843
 DV/DL  =       848.1805
 ------------------------------------------------------------------------------

      R M S  F L U C T U A T I O N S

 NSTEP =   500000   TIME(PS) =    1200.000  TEMP(K) =     2.78  PRESS =   195.3
 Etot   =       123.7122  EKtot   =        63.0782  EPtot      =       105.6232
 BOND   =         0.9860  ANGLE   =         0.9498  DIHED      =         0.0000
 1-4 NB =         0.0000  1-4 EEL =         0.0000  VDWAALS    =        94.3953
 EELEC  =       162.7851  EHBOND  =         0.0000  RESTRAINT  =         0.0000
 EKCMT  =        44.7267  VIRIAL  =       494.1959  VOLUME     =       833.5399
                                                    Density    =         0.0066
 DV/DL  =        25.9467
 ------------------------------------------------------------------------------

      A V E R A G E S   O V E R  500000 S T E P S

 NSTEP =   500000   TIME(PS) =    1200.000  TEMP(K) =   300.12  PRESS =   -10.5
 Etot   =    -29805.1474  EKtot   =      6808.8559  EPtot      =    -36614.0034
 BOND   =         1.4189  ANGLE   =         7.7649  DIHED      =         0.0000
 1-4 NB =         0.0000  1-4 EEL =         0.0000  VDWAALS    =      5439.3126
 EELEC  =    -42062.4997  EHBOND  =         0.0000  RESTRAINT  =         0.0000
 EKCMT  =      3415.7096  VIRIAL  =      3443.4977  VOLUME     =    115755.5472
                                                    Density    =         0.9843
 DV/DL  =       848.1805
 ------------------------------------------------------------------------------

      R M S  F L U C T U A T I O N S

 NSTEP =   500000   TIME(PS) =    1200.000  TEMP(K) =     2.78  PRESS =   195.3
 Etot   =       123.7122  EKtot   =        63.0782  EPtot      =       105.6232
 BOND   =         0.9860  ANGLE   =         0.9498  DIHED      =         0.0000
 1-4 NB =         0.0000  1-4 EEL =         0.0000  VDWAALS    =        94.3953
 EELEC  =       162.7851  EHBOND  =         0.0000  RESTRAINT  =         0.0000
 EKCMT  =        44.7267  VIRIAL  =       494.1959  VOLUME     =       833.5399
                                                    Density    =         0.0066
 DV/DL  =        25.9467
 ------------------------------------------------------------------------------

      DV/DL, AVERAGES OVER  500000 STEPS

 NSTEP =   500000   TIME(PS) =    1200.000  TEMP(K) =     2.78  PRESS =     0.0
 Etot   =         0.0000  EKtot   =         0.0000  EPtot      =       848.1805
 BOND   =         0.0000  ANGLE   =         0.0000  DIHED      =         0.0000
 1-4 NB =         0.0000  1-4 EEL =         0.0000  VDWAALS    =         0.0000
 EELEC  =       848.1805  EHBOND  =         0.0000  RESTRAINT  =         0.0000
 EKCMT  =         0.0000  VIRIAL  =         0.0000  VOLUME     =         0.0000
                                                    Density    =         0.0000
 DV/DL  =       848.1805
 ------------------------------------------------------------------------------
