-------------------------------------------------------
          Amber 20 PMEMD                              2020
          -------------------------------------------------------

  [-O]verwriting output

File Assignments:

 Here is the input file:

 &cntrl
   nstlim=500000, nscm=1000,
   ntx=5, irest=1, ntpr=1000,
   tempi=300.0, temp0=300.0, ntt=3, gamma_ln=2.0,
   ntp=1, pres0=1.01325, taup=5.0,
   ntb=2, igb=0, cut=10.0,
   dt=0.002, ig=-1,
   ntc=2, ntf=2,
   iwrap=0,
   ntwr=1000, ntwx=50000, ntave=1000,
   ioutfm=1, ntwv=-1,
   ifsc = 0, icfe=1,
   clambda=0.56262,
   timask1=':1',
   timask2=':2',
/

Note: ig = -1. Setting random seed to   961437 based on wallclock time in
      microseconds.

--------------------------------------------------------------------------------
   1.  RESOURCE   USE:
--------------------------------------------------------------------------------

 getting box info from netcdf restart file
 NATOM  =   11419 NTYPES =       6 NBONH =   11409 MBONA  =       8
 NTHETH =       0 MTHETA =      12 NPHIH =       0 MPHIA  =       0
 NHPARM =       0 NPARM  =       0 NNB   =   15234 NRES   =    3805
 NBONA  =       8 NTHETA =      12 NPHIA =       0 NUMBND =       3
 NUMANG =       1 NPTRA  =       0 NATYP =       4 NPHB   =       1
 IFBOX  =       2 NMXRS  =       5 IFCAP =       0 NEXTRA =       0
 NCOPY  =       0

     BOX TYPE: TRUNCATED OCTAHEDRON

--------------------------------------------------------------------------------
   2.  CONTROL  DATA  FOR  THE  RUN
--------------------------------------------------------------------------------

default_name

General flags:
     imin    =       0, nmropt  =       0

Nature and format of input:
     ntx     =       5, irest   =       1, ntrx    =       1

Nature and format of output:
     ntxo    =       2, ntpr    =    1000, ntrx    =       1, ntwr    =    1000
     iwrap   =       0, ntwx    =   50000, ntwv    =      -1, ntwe    =       0
     ioutfm  =       1, ntwprt  =       0, idecomp =       0, rbornstat=      0

Potential function:
     ntf     =       2, ntb     =       2, igb     =       0, nsnb    =      25
     ipol    =       0, gbsa    =       0, iesp    =       0
     dielc   =   1.00000, cut     =  10.00000, intdiel =   1.00000

Frozen or restrained atoms:
     ibelly  =       0, ntr     =       0

Molecular dynamics:
     nstlim  =    500000, nscm    =      1000, nrespa  =         1
     t       =   0.00000, dt      =   0.00200, vlimit  =  -1.00000

Langevin dynamics temperature regulation:
     ig      =  961437
     temp0   = 300.00000, tempi   = 300.00000, gamma_ln=   2.00000

Pressure regulation:
     ntp     =       1
     pres0   =   1.01325, comp    =  44.60000, taup    =   5.00000

SHAKE:
     ntc     =       2, jfastw  =       0
     tol     =   0.00001

Free energy options:
     icfe    =       1, ifsc    =       0, klambda =       1
     clambda =  0.5626, scalpha =  0.5000, scbeta  = 12.0000
     sceeorder =       2
     dynlmb =  0.0000 logdvdl =       0

Ewald parameters:
     verbose =       0, ew_type =       0, nbflag  =       1, use_pme =       1
     vdwmeth =       1, eedmeth =       1, netfrc  =       1
     Box X =   55.004   Box Y =   55.004   Box Z =   55.004
     Alpha =  109.471   Beta  =  109.471   Gamma =  109.471
     NFFT1 =   56       NFFT2 =   56       NFFT3 =   56
     Cutoff=   10.000   Tol   =0.100E-04
     Ewald Coefficient =  0.27511
     Interpolation order =    4
     TI Mask 1 :1; matches      5 atoms
     TI Mask 2 :2; matches      5 atoms
     TI region 1:   11414 atoms
     TI region 2:   11414 atoms
     Checking for mismatched coordinates.

--------------------------------------------------------------------------------
   3.  ATOMIC COORDINATES AND VELOCITIES
--------------------------------------------------------------------------------

default_name
 begin time read from input coords =   200.000 ps

 Number of triangulated 3-point waters found:     3803

     Sum of charges for TI region  1 =  -2.99999999
     Skip neutralizing charges...

     Sum of charges for TI region  2 =   0.00000000
     Skip neutralizing charges...

--------------------------------------------------------------------------------
   4.  RESULTS
 NSTEP =     1000   TIME(PS) =     202.000  TEMP(K) =   297.77  PRESS =  -970.2
 Etot   =    -28877.6720  EKtot   =      6755.5463  EPtot      =    -35633.2183
 BOND   =         1.6833  ANGLE   =         8.4098  DIHED      =         0.0000
 1-4 NB =         0.0000  1-4 EEL =         0.0000  VDWAALS    =      5132.2606
 EELEC  =    -40775.5721  EHBOND  =         0.0000  RESTRAINT  =         0.0000
 EKCMT  =      3449.7032  VIRIAL  =      6079.6080  VOLUME     =    125542.6112
                                                    Density    =         0.9075
 DV/DL  =       635.1671
 ------------------------------------------------------------------------------

      A V E R A G E S   O V E R    1000 S T E P S

 NSTEP =     1000   TIME(PS) =     202.000  TEMP(K) =   300.19  PRESS = -1131.6
 Etot   =    -28830.5494  EKtot   =      6810.4515  EPtot      =    -35641.0009
 BOND   =         1.4508  ANGLE   =         7.7468  DIHED      =         0.0000
 1-4 NB =         0.0000  1-4 EEL =         0.0000  VDWAALS    =      5124.8167
 EELEC  =    -40775.0152  EHBOND  =         0.0000  RESTRAINT  =         0.0000
 EKCMT  =      3408.9969  VIRIAL  =      6507.5173  VOLUME     =    126800.3117
                                                    Density    =         0.8985
 DV/DL  =       600.9000
 ------------------------------------------------------------------------------

      R M S  F L U C T U A T I O N S

 NSTEP =     1000   TIME(PS) =     202.000  TEMP(K) =     2.48  PRESS =   166.4
 Etot   =        46.4428  EKtot   =        56.3251  EPtot      =        63.9167
 BOND   =         0.9949  ANGLE   =         0.9628  DIHED      =         0.0000
 1-4 NB =         0.0000  1-4 EEL =         0.0000  VDWAALS    =        95.7983
 EELEC  =       129.8509  EHBOND  =         0.0000  RESTRAINT  =         0.0000
 EKCMT  =        47.3491  VIRIAL  =       450.8748  VOLUME     =       726.6054
                                                    Density    =         0.0051
 DV/DL  =        22.4588
 ------------------------------------------------------------------------------

      A V E R A G E S   O V E R    1000 S T E P S

 NSTEP =     1000   TIME(PS) =     202.000  TEMP(K) =   300.19  PRESS = -1131.6
 Etot   =    -28830.5494  EKtot   =      6810.4515  EPtot      =    -35641.0009
 BOND   =         1.4508  ANGLE   =         7.7468  DIHED      =         0.0000
 1-4 NB =         0.0000  1-4 EEL =         0.0000  VDWAALS    =      5124.8167
 EELEC  =    -40775.0152  EHBOND  =         0.0000  RESTRAINT  =         0.0000
 EKCMT  =      3408.9969  VIRIAL  =      6507.5173  VOLUME     =    126800.3117
                                                    Density    =         0.8985
 DV/DL  =       600.9000
 ------------------------------------------------------------------------------

      R M S  F L U C T U A T I O N S

 NSTEP =     1000   TIME(PS) =     202.000  TEMP(K) =     2.48  PRESS =   166.4
 Etot   =        46.4428  EKtot   =        56.3251  EPtot      =        63.9167
 BOND   =         0.9949  ANGLE   =         0.9628  DIHED      =         0.0000
 1-4 NB =         0.0000  1-4 EEL =         0.0000  VDWAALS    =        95.7983
 EELEC  =       129.8509  EHBOND  =         0.0000  RESTRAINT  =         0.0000
 EKCMT  =        47.3491  VIRIAL  =       450.8748  VOLUME     =       726.6054
                                                    Density    =         0.0051
 DV/DL  =        22.4588
 ------------------------------------------------------------------------------

      DV/DL, AVERAGES OVER    1000 STEPS

 NSTEP =     1000   TIME(PS) =     202.000  TEMP(K) =     2.48  PRESS =     0.0
 Etot   =         0.0000  EKtot   =         0.0000  EPtot      =       600.9000
 BOND   =         0.0000  ANGLE   =         0.0000  DIHED      =         0.0000
 1-4 NB =         0.0000  1-4 EEL =         0.0000  VDWAALS    =       -19.6180
 EELEC  =       620.5180  EHBOND  =         0.0000  RESTRAINT  =         0.0000
 EKCMT  =         0.0000  VIRIAL  =         0.0000  VOLUME     =         0.0000
                                                    Density    =         0.0000
 DV/DL  =       600.9000
 ------------------------------------------------------------------------------

      A V E R A G E S   O V E R    1000 S T E P S

 NSTEP =     2000   TIME(PS) =     204.000  TEMP(K) =   299.68  PRESS =  -904.0
 Etot   =    -29030.0411  EKtot   =      6798.7216  EPtot      =    -35828.7627
 BOND   =         1.5368  ANGLE   =         8.4672  DIHED      =         0.0000
 1-4 NB =         0.0000  1-4 EEL =         0.0000  VDWAALS    =      5216.9844
 EELEC  =    -41055.7511  EHBOND  =         0.0000  RESTRAINT  =         0.0000
 EKCMT  =      3414.7668  VIRIAL  =      5845.4241  VOLUME     =    124513.9609
                                                    Density    =         0.9150
 DV/DL  =       594.8895
 ------------------------------------------------------------------------------

      R M S  F L U C T U A T I O N S

 NSTEP =     2000   TIME(PS) =     204.000  TEMP(K) =     2.36  PRESS =   152.5
 Etot   =       115.5200  EKtot   =        53.6310  EPtot      =        98.1621
 BOND   =         0.9699  ANGLE   =         1.3240  DIHED      =         0.0000
 1-4 NB =         0.0000  1-4 EEL =         0.0000  VDWAALS    =        89.2988
 EELEC  =       159.7493  EHBOND  =         0.0000  RESTRAINT  =         0.0000
 EKCMT  =        40.9040  VIRIAL  =       412.2598  VOLUME     =       567.2914
                                                    Density    =         0.0042
 DV/DL  =        25.9035
 ------------------------------------------------------------------------------

      A V E R A G E S   O V E R    1000 S T E P S

 NSTEP =     2000   TIME(PS) =     204.000  TEMP(K) =   299.68  PRESS =  -904.0
 Etot   =    -29030.0411  EKtot   =      6798.7216  EPtot      =    -35828.7627
 BOND   =         1.5368  ANGLE   =         8.4672  DIHED      =         0.0000
 1-4 NB =         0.0000  1-4 EEL =         0.0000  VDWAALS    =      5216.9844
 EELEC  =    -41055.7511  EHBOND  =         0.0000  RESTRAINT  =         0.0000
 EKCMT  =      3414.7668  VIRIAL  =      5845.4241  VOLUME     =    124513.9609
                                                    Density    =         0.9150
 DV/DL  =       594.8895
 ------------------------------------------------------------------------------

      R M S  F L U C T U A T I O N S

 NSTEP =     2000   TIME(PS) =     204.000  TEMP(K) =     2.36  PRESS =   152.5
 Etot   =       115.5200  EKtot   =        53.6310  EPtot      =        98.1621
 BOND   =         0.9699  ANGLE   =         1.3240  DIHED      =         0.0000
 1-4 NB =         0.0000  1-4 EEL =         0.0000  VDWAALS    =        89.2988
 EELEC  =       159.7493  EHBOND  =         0.0000  RESTRAINT  =         0.0000
 EKCMT  =        40.9040  VIRIAL  =       412.2598  VOLUME     =       567.2914
                                                    Density    =         0.0042
 DV/DL  =        25.9035
 ------------------------------------------------------------------------------

      DV/DL, AVERAGES OVER    1000 STEPS

 NSTEP =     2000   TIME(PS) =     204.000  TEMP(K) =     2.36  PRESS =     0.0
 Etot   =         0.0000  EKtot   =         0.0000  EPtot      =       594.8895
 BOND   =         0.0000  ANGLE   =         0.0000  DIHED      =         0.0000
 1-4 NB =         0.0000  1-4 EEL =         0.0000  VDWAALS    =       -21.8374
 EELEC  =       616.7269  EHBOND  =         0.0000  RESTRAINT  =         0.0000
 EKCMT  =         0.0000  VIRIAL  =         0.0000  VOLUME     =         0.0000
                                                    Density    =         0.0000
 DV/DL  =       594.8895
 ------------------------------------------------------------------------------

      A V E R A G E S   O V E R    1000 S T E P S

 NSTEP =   500000   TIME(PS) =    1200.000  TEMP(K) =   300.27  PRESS =    23.5
 Etot   =    -29651.6572  EKtot   =      6812.1562  EPtot      =    -36463.8134
 BOND   =         1.4627  ANGLE   =         7.8473  DIHED      =         0.0000
 1-4 NB =         0.0000  1-4 EEL =         0.0000  VDWAALS    =      5456.1968
 EELEC  =    -41929.3202  EHBOND  =         0.0000  RESTRAINT  =         0.0000
 EKCMT  =      3422.7042  VIRIAL  =      3364.1209  VOLUME     =    115691.6075
                                                    Density    =         0.9848
 DV/DL  =       625.3219
 ------------------------------------------------------------------------------

      R M S  F L U C T U A T I O N S

 NSTEP =   500000   TIME(PS) =    1200.000  TEMP(K) =     2.57  PRESS =   168.4
 Etot   =       119.8757  EKtot   =        58.2167  EPtot      =        92.2205
 BOND   =         1.1647  ANGLE   =         0.9303  DIHED      =         0.0000
 1-4 NB =         0.0000  1-4 EEL =         0.0000  VDWAALS    =       111.1665
 EELEC  =       185.5087  EHBOND  =         0.0000  RESTRAINT  =         0.0000
 EKCMT  =        42.4199  VIRIAL  =       430.0095  VOLUME     =        41.5526
                                                    Density    =         0.0004
 DV/DL  =        22.4004
 ------------------------------------------------------------------------------

      A V E R A G E S   O V E R    1000 S T E P S

 NSTEP =   500000   TIME(PS) =    1200.000  TEMP(K) =   300.27  PRESS =    23.5
 Etot   =    -29651.6572  EKtot   =      6812.1562  EPtot      =    -36463.8134
 BOND   =         1.4627  ANGLE   =         7.8473  DIHED      =         0.0000
 1-4 NB =         0.0000  1-4 EEL =         0.0000  VDWAALS    =      5456.1968
 EELEC  =    -41929.3202  EHBOND  =         0.0000  RESTRAINT  =         0.0000
 EKCMT  =      3422.7042  VIRIAL  =      3364.1209  VOLUME     =    115691.6075
                                                    Density    =         0.9848
 DV/DL  =       625.3219
 ------------------------------------------------------------------------------

      R M S  F L U C T U A T I O N S

 NSTEP =   500000   TIME(PS) =    1200.000  TEMP(K) =     2.57  PRESS =   168.4
 Etot   =       119.8757  EKtot   =        58.2167  EPtot      =        92.2205
 BOND   =         1.1647  ANGLE   =         0.9303  DIHED      =         0.0000
 1-4 NB =         0.0000  1-4 EEL =         0.0000  VDWAALS    =       111.1665
 EELEC  =       185.5087  EHBOND  =         0.0000  RESTRAINT  =         0.0000
 EKCMT  =        42.4199  VIRIAL  =       430.0095  VOLUME     =        41.5526
                                                    Density    =         0.0004
 DV/DL  =        22.4004
 ------------------------------------------------------------------------------

      DV/DL, AVERAGES OVER    1000 STEPS

 NSTEP =   500000   TIME(PS) =    1200.000  TEMP(K) =     2.57  PRESS =     0.0
 Etot   =         0.0000  EKtot   =         0.0000  EPtot      =       625.3219
 BOND   =         0.0000  ANGLE   =         0.0000  DIHED      =         0.0000
 1-4 NB =         0.0000  1-4 EEL =         0.0000  VDWAALS    =       -21.4119
 EELEC  =       646.7337  EHBOND  =         0.0000  RESTRAINT  =         0.0000
 EKCMT  =         0.0000  VIRIAL  =         0.0000  VOLUME     =         0.0000
                                                    Density    =         0.0000
 DV/DL  =       625.3219
 ------------------------------------------------------------------------------

      A V E R A G E S   O V E R  500000 S T E P S

 NSTEP =   500000   TIME(PS) =    1200.000  TEMP(K) =   299.85  PRESS =   -10.4
 Etot   =    -29638.2571  EKtot   =      6802.6977  EPtot      =    -36440.9548
 BOND   =         1.3462  ANGLE   =         7.8489  DIHED      =         0.0000
 1-4 NB =         0.0000  1-4 EEL =         0.0000  VDWAALS    =      5437.6904
 EELEC  =    -41887.8403  EHBOND  =         0.0000  RESTRAINT  =         0.0000
 EKCMT  =      3411.7591  VIRIAL  =      3439.2781  VOLUME     =    115803.9554
                                                    Density    =         0.9839
 DV/DL  =       606.9623
 ------------------------------------------------------------------------------

      R M S  F L U C T U A T I O N S

 NSTEP =   500000   TIME(PS) =    1200.000  TEMP(K) =     2.80  PRESS =   195.5
 Etot   =       126.8920  EKtot   =        63.5718  EPtot      =       107.5754
 BOND   =         0.9490  ANGLE   =         1.0118  DIHED      =         0.0000
 1-4 NB =         0.0000  1-4 EEL =         0.0000  VDWAALS    =        95.3627
 EELEC  =       166.4556  EHBOND  =         0.0000  RESTRAINT  =         0.0000
 EKCMT  =        45.2437  VIRIAL  =       494.3216  VOLUME     =       823.7224
                                                    Density    =         0.0066
 DV/DL  =        25.3787
 ------------------------------------------------------------------------------

      A V E R A G E S   O V E R  500000 S T E P S

 NSTEP =   500000   TIME(PS) =    1200.000  TEMP(K) =   299.85  PRESS =   -10.4
 Etot   =    -29638.2571  EKtot   =      6802.6977  EPtot      =    -36440.9548
 BOND   =         1.3462  ANGLE   =         7.8489  DIHED      =         0.0000
 1-4 NB =         0.0000  1-4 EEL =         0.0000  VDWAALS    =      5437.6904
 EELEC  =    -41887.8403  EHBOND  =         0.0000  RESTRAINT  =         0.0000
 EKCMT  =      3411.7591  VIRIAL  =      3439.2781  VOLUME     =    115803.9554
                                                    Density    =         0.9839
 DV/DL  =       606.9623
 ------------------------------------------------------------------------------

      R M S  F L U C T U A T I O N S

 NSTEP =   500000   TIME(PS) =    1200.000  TEMP(K) =     2.80  PRESS =   195.5
 Etot   =       126.8920  EKtot   =        63.5718  EPtot      =       107.5754
 BOND   =         0.9490  ANGLE   =         1.0118  DIHED      =         0.0000
 1-4 NB =         0.0000  1-4 EEL =         0.0000  VDWAALS    =        95.3627
 EELEC  =       166.4556  EHBOND  =         0.0000  RESTRAINT  =         0.0000
 EKCMT  =        45.2437  VIRIAL  =       494.3216  VOLUME     =       823.7224
                                                    Density    =         0.0066
 DV/DL  =        25.3787
 ------------------------------------------------------------------------------

      DV/DL, AVERAGES OVER  500000 STEPS

 NSTEP =   500000   TIME(PS) =    1200.000  TEMP(K) =     2.80  PRESS =     0.0
 Etot   =         0.0000  EKtot   =         0.0000  EPtot      =       606.9623
 BOND   =         0.0000  ANGLE   =         0.0000  DIHED      =         0.0000
 1-4 NB =         0.0000  1-4 EEL =         0.0000  VDWAALS    =       -20.2485
 EELEC  =       627.2107  EHBOND  =         0.0000  RESTRAINT  =         0.0000
 EKCMT  =         0.0000  VIRIAL  =         0.0000  VOLUME     =         0.0000
                                                    Density    =         0.0000
 DV/DL  =       606.9623
 ------------------------------------------------------------------------------
