-------------------------------------------------------
          Amber 20 PMEMD                              2020
          -------------------------------------------------------

  [-O]verwriting output

File Assignments:

 Here is the input file:

 &cntrl
   nstlim=1000000, nscm=1000,
   ntx=1, irest=0, ntpr=1000,
   tempi=300.0, temp0=300.0, ntt=3, gamma_ln=2.0,
   ntb=1, igb=0, cut=10.0,
   dt=0.001, ig=-1,
   ntc=1, ntf=1,
   iwrap=0,
   ntwr=1000, ntwx=50000, ntave=1000,
   ioutfm=1, ntwv=-1,
   ifsc = 0, icfe=1,
   clambda=0.31608,
   timask1=':1',
   timask2=':2', crgmask = ':2',
/

Note: ig = -1. Setting random seed to   395726 based on wallclock time in
      microseconds.

--------------------------------------------------------------------------------
   1.  RESOURCE   USE:
--------------------------------------------------------------------------------

 getting box info from netcdf restart file
 NATOM  =      10 NTYPES =       4 NBONH =       0 MBONA  =       8
 NTHETH =       0 MTHETA =      12 NPHIH =       0 MPHIA  =       0
 NHPARM =       0 NPARM  =       0 NNB   =      22 NRES   =       2
 NBONA  =       8 NTHETA =      12 NPHIA =       0 NUMBND =       1
 NUMANG =       1 NPTRA  =       0 NATYP =       4 NPHB   =       1
 IFBOX  =       2 NMXRS  =       5 IFCAP =       0 NEXTRA =       0
 NCOPY  =       0

     BOX TYPE: TRUNCATED OCTAHEDRON

--------------------------------------------------------------------------------
   2.  CONTROL  DATA  FOR  THE  RUN
--------------------------------------------------------------------------------

default_name

General flags:
     imin    =       0, nmropt  =       0

Nature and format of input:
     ntx     =       1, irest   =       0, ntrx    =       1

Nature and format of output:
     ntxo    =       2, ntpr    =    1000, ntrx    =       1, ntwr    =    1000
     iwrap   =       0, ntwx    =   50000, ntwv    =      -1, ntwe    =       0
     ioutfm  =       1, ntwprt  =       0, idecomp =       0, rbornstat=      0

Potential function:
     ntf     =       1, ntb     =       1, igb     =       0, nsnb    =      25
     ipol    =       0, gbsa    =       0, iesp    =       0
     dielc   =   1.00000, cut     =  10.00000, intdiel =   1.00000

Frozen or restrained atoms:
     ibelly  =       0, ntr     =       0

Molecular dynamics:
     nstlim  =   1000000, nscm    =      1000, nrespa  =         1
     t       =   0.00000, dt      =   0.00100, vlimit  =  -1.00000

Langevin dynamics temperature regulation:
     ig      =  395726
     temp0   = 300.00000, tempi   = 300.00000, gamma_ln=   2.00000

Free energy options:
     icfe    =       1, ifsc    =       0, klambda =       1
     clambda =  0.3161, scalpha =  0.5000, scbeta  = 12.0000
     sceeorder =       2
     dynlmb =  0.0000 logdvdl =       0

Ewald parameters:
     verbose =       0, ew_type =       0, nbflag  =       1, use_pme =       1
     vdwmeth =       1, eedmeth =       1, netfrc  =       1
     Box X =   55.004   Box Y =   55.004   Box Z =   55.004
     Alpha =  109.471   Beta  =  109.471   Gamma =  109.471
     NFFT1 =   56       NFFT2 =   56       NFFT3 =   56
     Cutoff=   10.000   Tol   =0.100E-04
     Ewald Coefficient =  0.27511
     Interpolation order =    4
     TI Mask 1 :1; matches      5 atoms
     TI Mask 2 :2; matches      5 atoms
     TI region 1:       5 atoms
     TI region 2:       5 atoms
Removing charge of       1.4352 from atom       6
Removing charge of      -1.1088 from atom       7
Removing charge of      -1.1088 from atom       8
Removing charge of      -1.1088 from atom       9
Removing charge of      -1.1088 from atom      10
Total charge of  -2.99999999 removed from       5 atoms
     Checking for mismatched coordinates.

--------------------------------------------------------------------------------
   3.  ATOMIC COORDINATES AND VELOCITIES
--------------------------------------------------------------------------------

default_name
 begin time read from input coords =     0.000 ps

 Number of triangulated 3-point waters found:        0

     Sum of charges for TI region  1 =  -2.99999999
     Skip neutralizing charges...

     Sum of charges for TI region  2 =   0.00000000
     Skip neutralizing charges...

--------------------------------------------------------------------------------
   4.  RESULTS
 NSTEP =        0   TIME(PS) =       0.000  TEMP(K) =   242.62  PRESS =     0.0
 Etot   =       -48.5805  EKtot   =         3.6160  EPtot      =       -52.1965
 BOND   =         0.0000  ANGLE   =         6.2592  DIHED      =         0.0000
 1-4 NB =         0.0000  1-4 EEL =         0.0000  VDWAALS    =        -0.0003
 EELEC  =       -58.4554  EHBOND  =         0.0000  RESTRAINT  =         0.0000
 DV/DL  =        85.4711
 ------------------------------------------------------------------------------

      A V E R A G E S   O V E R    1000 S T E P S

 NSTEP =     1000   TIME(PS) =       1.000  TEMP(K) =   285.00  PRESS =     0.0
 Etot   =       -46.2742  EKtot   =         4.2476  EPtot      =       -50.5218
 BOND   =         0.5765  ANGLE   =         7.3481  DIHED      =         0.0000
 1-4 NB =         0.0000  1-4 EEL =         0.0000  VDWAALS    =        -0.0003
 EELEC  =       -58.4461  EHBOND  =         0.0000  RESTRAINT  =         0.0000
 DV/DL  =        85.4575
 ------------------------------------------------------------------------------

      R M S  F L U C T U A T I O N S

 NSTEP =     1000   TIME(PS) =       1.000  TEMP(K) =    89.78  PRESS =     0.0
 Etot   =         1.5304  EKtot   =         1.3381  EPtot      =         0.8163
 BOND   =         0.4031  ANGLE   =         0.6331  DIHED      =         0.0000
 1-4 NB =         0.0000  1-4 EEL =         0.0000  VDWAALS    =         0.0000
 EELEC  =         0.0088  EHBOND  =         0.0000  RESTRAINT  =         0.0000
 DV/DL  =         0.0206
 ------------------------------------------------------------------------------

      A V E R A G E S   O V E R    1000 S T E P S

 NSTEP =     1000   TIME(PS) =       1.000  TEMP(K) =   284.82  PRESS =     0.0
 Etot   =       -46.2769  EKtot   =         4.2449  EPtot      =       -50.5218
 BOND   =         0.5765  ANGLE   =         7.3481  DIHED      =         0.0000
 1-4 NB =         0.0000  1-4 EEL =         0.0000  VDWAALS    =        -0.0003
 EELEC  =       -58.4461  EHBOND  =         0.0000  RESTRAINT  =         0.0000
 DV/DL  =        85.4575
 ------------------------------------------------------------------------------

      R M S  F L U C T U A T I O N S

 NSTEP =     1000   TIME(PS) =       1.000  TEMP(K) =    90.08  PRESS =     0.0
 Etot   =         1.5331  EKtot   =         1.3425  EPtot      =         0.8163
 BOND   =         0.4031  ANGLE   =         0.6331  DIHED      =         0.0000
 1-4 NB =         0.0000  1-4 EEL =         0.0000  VDWAALS    =         0.0000
 EELEC  =         0.0088  EHBOND  =         0.0000  RESTRAINT  =         0.0000
 DV/DL  =         0.0206
 ------------------------------------------------------------------------------

      DV/DL, AVERAGES OVER    1000 STEPS

 NSTEP =     1000   TIME(PS) =       1.000  TEMP(K) =    90.08  PRESS =     0.0
 Etot   =         0.0000  EKtot   =         0.0000  EPtot      =        85.4575
 BOND   =         0.0000  ANGLE   =        -0.0001  DIHED      =         0.0000
 1-4 NB =         0.0000  1-4 EEL =         0.0000  VDWAALS    =         0.0000
 EELEC  =        85.4575  EHBOND  =         0.0000  RESTRAINT  =         0.0000
 DV/DL  =        85.4575
 ------------------------------------------------------------------------------

      A V E R A G E S   O V E R    1000 S T E P S

 NSTEP =     2000   TIME(PS) =       2.000  TEMP(K) =   249.30  PRESS =     0.0
 Etot   =       -45.9988  EKtot   =         3.7155  EPtot      =       -49.7143
 BOND   =         1.2736  ANGLE   =         7.4625  DIHED      =         0.0000
 1-4 NB =         0.0000  1-4 EEL =         0.0000  VDWAALS    =        -0.0003
 EELEC  =       -58.4501  EHBOND  =         0.0000  RESTRAINT  =         0.0000
 DV/DL  =        85.4630
 ------------------------------------------------------------------------------

      R M S  F L U C T U A T I O N S

 NSTEP =     2000   TIME(PS) =       2.000  TEMP(K) =    89.67  PRESS =     0.0
 Etot   =         1.6749  EKtot   =         1.3364  EPtot      =         1.1121
 BOND   =         0.7574  ANGLE   =         0.7619  DIHED      =         0.0000
 1-4 NB =         0.0000  1-4 EEL =         0.0000  VDWAALS    =         0.0000
 EELEC  =         0.0068  EHBOND  =         0.0000  RESTRAINT  =         0.0000
 DV/DL  =         0.0264
 ------------------------------------------------------------------------------

      A V E R A G E S   O V E R    1000 S T E P S

 NSTEP =     2000   TIME(PS) =       2.000  TEMP(K) =   249.40  PRESS =     0.0
 Etot   =       -45.9973  EKtot   =         3.7170  EPtot      =       -49.7143
 BOND   =         1.2736  ANGLE   =         7.4625  DIHED      =         0.0000
 1-4 NB =         0.0000  1-4 EEL =         0.0000  VDWAALS    =        -0.0003
 EELEC  =       -58.4501  EHBOND  =         0.0000  RESTRAINT  =         0.0000
 DV/DL  =        85.4630
 ------------------------------------------------------------------------------

      R M S  F L U C T U A T I O N S

 NSTEP =     2000   TIME(PS) =       2.000  TEMP(K) =    89.65  PRESS =     0.0
 Etot   =         1.6738  EKtot   =         1.3362  EPtot      =         1.1121
 BOND   =         0.7574  ANGLE   =         0.7619  DIHED      =         0.0000
 1-4 NB =         0.0000  1-4 EEL =         0.0000  VDWAALS    =         0.0000
 EELEC  =         0.0068  EHBOND  =         0.0000  RESTRAINT  =         0.0000
 DV/DL  =         0.0264
 ------------------------------------------------------------------------------

      DV/DL, AVERAGES OVER    1000 STEPS

 NSTEP =     2000   TIME(PS) =       2.000  TEMP(K) =    89.65  PRESS =     0.0
 Etot   =         0.0000  EKtot   =         0.0000  EPtot      =        85.4630
 BOND   =        -0.0004  ANGLE   =         0.0001  DIHED      =         0.0000
 1-4 NB =         0.0000  1-4 EEL =         0.0000  VDWAALS    =         0.0000
 EELEC  =        85.4633  EHBOND  =         0.0000  RESTRAINT  =         0.0000
 DV/DL  =        85.4630
 ------------------------------------------------------------------------------

      A V E R A G E S   O V E R    1000 S T E P S

 NSTEP =  1000000   TIME(PS) =    1000.000  TEMP(K) =   266.82  PRESS =     0.0
 Etot   =       -45.8701  EKtot   =         3.9766  EPtot      =       -49.8468
 BOND   =         0.6447  ANGLE   =         7.9546  DIHED      =         0.0000
 1-4 NB =         0.0000  1-4 EEL =         0.0000  VDWAALS    =        -0.0003
 EELEC  =       -58.4458  EHBOND  =         0.0000  RESTRAINT  =         0.0000
 DV/DL  =        85.4564
 ------------------------------------------------------------------------------

      R M S  F L U C T U A T I O N S

 NSTEP =  1000000   TIME(PS) =    1000.000  TEMP(K) =    81.04  PRESS =     0.0
 Etot   =         1.1985  EKtot   =         1.2078  EPtot      =         1.1673
 BOND   =         0.3655  ANGLE   =         1.1181  DIHED      =         0.0000
 1-4 NB =         0.0000  1-4 EEL =         0.0000  VDWAALS    =         0.0000
 EELEC  =         0.0077  EHBOND  =         0.0000  RESTRAINT  =         0.0000
 DV/DL  =         0.0226
 ------------------------------------------------------------------------------

      A V E R A G E S   O V E R    1000 S T E P S

 NSTEP =  1000000   TIME(PS) =    1000.000  TEMP(K) =   266.69  PRESS =     0.0
 Etot   =       -45.8720  EKtot   =         3.9748  EPtot      =       -49.8468
 BOND   =         0.6447  ANGLE   =         7.9546  DIHED      =         0.0000
 1-4 NB =         0.0000  1-4 EEL =         0.0000  VDWAALS    =        -0.0003
 EELEC  =       -58.4458  EHBOND  =         0.0000  RESTRAINT  =         0.0000
 DV/DL  =        85.4564
 ------------------------------------------------------------------------------

      R M S  F L U C T U A T I O N S

 NSTEP =  1000000   TIME(PS) =    1000.000  TEMP(K) =    80.94  PRESS =     0.0
 Etot   =         1.1994  EKtot   =         1.2063  EPtot      =         1.1673
 BOND   =         0.3655  ANGLE   =         1.1181  DIHED      =         0.0000
 1-4 NB =         0.0000  1-4 EEL =         0.0000  VDWAALS    =         0.0000
 EELEC  =         0.0077  EHBOND  =         0.0000  RESTRAINT  =         0.0000
 DV/DL  =         0.0226
 ------------------------------------------------------------------------------

      DV/DL, AVERAGES OVER    1000 STEPS

 NSTEP =  1000000   TIME(PS) =    1000.000  TEMP(K) =    80.94  PRESS =     0.0
 Etot   =         0.0000  EKtot   =         0.0000  EPtot      =        85.4564
 BOND   =        -0.0005  ANGLE   =        -0.0002  DIHED      =         0.0000
 1-4 NB =         0.0000  1-4 EEL =         0.0000  VDWAALS    =         0.0000
 EELEC  =        85.4570  EHBOND  =         0.0000  RESTRAINT  =         0.0000
 DV/DL  =        85.4564
 ------------------------------------------------------------------------------

      A V E R A G E S   O V E R 1000000 S T E P S

 NSTEP =  1000000   TIME(PS) =    1000.000  TEMP(K) =   303.71  PRESS =     0.0
 Etot   =       -44.9543  EKtot   =         4.5265  EPtot      =       -49.4807
 BOND   =         1.2322  ANGLE   =         7.7343  DIHED      =         0.0000
 1-4 NB =         0.0000  1-4 EEL =         0.0000  VDWAALS    =        -0.0003
 EELEC  =       -58.4469  EHBOND  =         0.0000  RESTRAINT  =         0.0000
 DV/DL  =        85.4587
 ------------------------------------------------------------------------------

      R M S  F L U C T U A T I O N S

 NSTEP =  1000000   TIME(PS) =    1000.000  TEMP(K) =   109.51  PRESS =     0.0
 Etot   =         2.0480  EKtot   =         1.6322  EPtot      =         1.2682
 BOND   =         0.8649  ANGLE   =         0.9354  DIHED      =         0.0000
 1-4 NB =         0.0000  1-4 EEL =         0.0000  VDWAALS    =         0.0000
 EELEC  =         0.0076  EHBOND  =         0.0000  RESTRAINT  =         0.0000
 DV/DL  =         0.0272
 ------------------------------------------------------------------------------

      A V E R A G E S   O V E R 1000000 S T E P S

 NSTEP =  1000000   TIME(PS) =    1000.000  TEMP(K) =   303.71  PRESS =     0.0
 Etot   =       -44.9543  EKtot   =         4.5264  EPtot      =       -49.4807
 BOND   =         1.2322  ANGLE   =         7.7343  DIHED      =         0.0000
 1-4 NB =         0.0000  1-4 EEL =         0.0000  VDWAALS    =        -0.0003
 EELEC  =       -58.4469  EHBOND  =         0.0000  RESTRAINT  =         0.0000
 DV/DL  =        85.4587
 ------------------------------------------------------------------------------

      R M S  F L U C T U A T I O N S

 NSTEP =  1000000   TIME(PS) =    1000.000  TEMP(K) =   109.51  PRESS =     0.0
 Etot   =         2.0481  EKtot   =         1.6322  EPtot      =         1.2682
 BOND   =         0.8649  ANGLE   =         0.9354  DIHED      =         0.0000
 1-4 NB =         0.0000  1-4 EEL =         0.0000  VDWAALS    =         0.0000
 EELEC  =         0.0076  EHBOND  =         0.0000  RESTRAINT  =         0.0000
 DV/DL  =         0.0272
 ------------------------------------------------------------------------------

      DV/DL, AVERAGES OVER 1000000 STEPS

 NSTEP =  1000000   TIME(PS) =    1000.000  TEMP(K) =   109.51  PRESS =     0.0
 Etot   =         0.0000  EKtot   =         0.0000  EPtot      =        85.4587
 BOND   =         0.0000  ANGLE   =        -0.0000  DIHED      =         0.0000
 1-4 NB =         0.0000  1-4 EEL =         0.0000  VDWAALS    =         0.0000
 EELEC  =        85.4586  EHBOND  =         0.0000  RESTRAINT  =         0.0000
 DV/DL  =        85.4587
 ------------------------------------------------------------------------------
