-------------------------------------------------------
          Amber 20 PMEMD                              2020
          -------------------------------------------------------

  [-O]verwriting output

File Assignments:

 Here is the input file:

 &cntrl
   nstlim=500000, nscm=1000,
   ntx=1, irest=0, ntpr=1000,
   tempi=300.0, temp0=300.0, ntt=3, gamma_ln=2.0,
   ntb=1, igb=0, cut=10.0,
   dt=0.002, ig=-1,
   ntc=2, ntf=2,
   iwrap=0,
   ntwr=1000, ntwx=50000, ntave=1000,
   ioutfm=1, ntwv=-1,
   ifsc = 0, icfe=1,
   clambda=0.56262,
   timask1=':1',
   timask2=':2', crgmask = ':2',
/

Note: ig = -1. Setting random seed to    16367 based on wallclock time in
      microseconds.

--------------------------------------------------------------------------------
   1.  RESOURCE   USE:
--------------------------------------------------------------------------------

 getting box info from netcdf restart file
 NATOM  =      10 NTYPES =       4 NBONH =       0 MBONA  =       8
 NTHETH =       0 MTHETA =      12 NPHIH =       0 MPHIA  =       0
 NHPARM =       0 NPARM  =       0 NNB   =      22 NRES   =       2
 NBONA  =       8 NTHETA =      12 NPHIA =       0 NUMBND =       1
 NUMANG =       1 NPTRA  =       0 NATYP =       4 NPHB   =       1
 IFBOX  =       2 NMXRS  =       5 IFCAP =       0 NEXTRA =       0
 NCOPY  =       0

     BOX TYPE: TRUNCATED OCTAHEDRON

--------------------------------------------------------------------------------
   2.  CONTROL  DATA  FOR  THE  RUN
--------------------------------------------------------------------------------

default_name

General flags:
     imin    =       0, nmropt  =       0

Nature and format of input:
     ntx     =       1, irest   =       0, ntrx    =       1

Nature and format of output:
     ntxo    =       2, ntpr    =    1000, ntrx    =       1, ntwr    =    1000
     iwrap   =       0, ntwx    =   50000, ntwv    =      -1, ntwe    =       0
     ioutfm  =       1, ntwprt  =       0, idecomp =       0, rbornstat=      0

Potential function:
     ntf     =       2, ntb     =       1, igb     =       0, nsnb    =      25
     ipol    =       0, gbsa    =       0, iesp    =       0
     dielc   =   1.00000, cut     =  10.00000, intdiel =   1.00000

Frozen or restrained atoms:
     ibelly  =       0, ntr     =       0

Molecular dynamics:
     nstlim  =    500000, nscm    =      1000, nrespa  =         1
     t       =   0.00000, dt      =   0.00200, vlimit  =  -1.00000

Langevin dynamics temperature regulation:
     ig      =   16367
     temp0   = 300.00000, tempi   = 300.00000, gamma_ln=   2.00000

SHAKE:
     ntc     =       2, jfastw  =       0
     tol     =   0.00001

Free energy options:
     icfe    =       1, ifsc    =       0, klambda =       1
     clambda =  0.5626, scalpha =  0.5000, scbeta  = 12.0000
     sceeorder =       2
     dynlmb =  0.0000 logdvdl =       0

Ewald parameters:
     verbose =       0, ew_type =       0, nbflag  =       1, use_pme =       1
     vdwmeth =       1, eedmeth =       1, netfrc  =       1
     Box X =   55.004   Box Y =   55.004   Box Z =   55.004
     Alpha =  109.471   Beta  =  109.471   Gamma =  109.471
     NFFT1 =   56       NFFT2 =   56       NFFT3 =   56
     Cutoff=   10.000   Tol   =0.100E-04
     Ewald Coefficient =  0.27511
     Interpolation order =    4
     TI Mask 1 :1; matches      5 atoms
     TI Mask 2 :2; matches      5 atoms
     TI region 1:       5 atoms
     TI region 2:       5 atoms
Removing charge of       1.4352 from atom       6
Removing charge of      -1.1088 from atom       7
Removing charge of      -1.1088 from atom       8
Removing charge of      -1.1088 from atom       9
Removing charge of      -1.1088 from atom      10
Total charge of  -2.99999999 removed from       5 atoms
     Checking for mismatched coordinates.

--------------------------------------------------------------------------------
   3.  ATOMIC COORDINATES AND VELOCITIES
--------------------------------------------------------------------------------

default_name
 begin time read from input coords =     0.000 ps

 Number of triangulated 3-point waters found:        0

     Sum of charges for TI region  1 =  -2.99999999
     Skip neutralizing charges...

     Sum of charges for TI region  2 =   0.00000000
     Skip neutralizing charges...

--------------------------------------------------------------------------------
   4.  RESULTS
 NSTEP =        0   TIME(PS) =       0.000  TEMP(K) =   415.07  PRESS =     0.0
 Etot   =       -24.9440  EKtot   =         6.1862  EPtot      =       -31.1302
 BOND   =         0.0000  ANGLE   =         6.2592  DIHED      =         0.0000
 1-4 NB =         0.0000  1-4 EEL =         0.0000  VDWAALS    =        -0.0003
 EELEC  =       -37.3891  EHBOND  =         0.0000  RESTRAINT  =         0.0000
 DV/DL  =        85.4842
 ------------------------------------------------------------------------------

      A V E R A G E S   O V E R    1000 S T E P S

 NSTEP =     1000   TIME(PS) =       2.000  TEMP(K) =   342.87  PRESS =     0.0
 Etot   =       -23.3718  EKtot   =         5.1102  EPtot      =       -28.4820
 BOND   =         0.8968  ANGLE   =         7.9999  DIHED      =         0.0000
 1-4 NB =         0.0000  1-4 EEL =         0.0000  VDWAALS    =        -0.0003
 EELEC  =       -37.3783  EHBOND  =         0.0000  RESTRAINT  =         0.0000
 DV/DL  =        85.4596
 ------------------------------------------------------------------------------

      R M S  F L U C T U A T I O N S

 NSTEP =     1000   TIME(PS) =       2.000  TEMP(K) =   107.68  PRESS =     0.0
 Etot   =         1.7728  EKtot   =         1.6049  EPtot      =         1.0934
 BOND   =         0.5266  ANGLE   =         0.9585  DIHED      =         0.0000
 1-4 NB =         0.0000  1-4 EEL =         0.0000  VDWAALS    =         0.0000
 EELEC  =         0.0057  EHBOND  =         0.0000  RESTRAINT  =         0.0000
 DV/DL  =         0.0129
 ------------------------------------------------------------------------------

      A V E R A G E S   O V E R    1000 S T E P S

 NSTEP =     1000   TIME(PS) =       2.000  TEMP(K) =   342.87  PRESS =     0.0
 Etot   =       -23.3718  EKtot   =         5.1102  EPtot      =       -28.4820
 BOND   =         0.8968  ANGLE   =         7.9999  DIHED      =         0.0000
 1-4 NB =         0.0000  1-4 EEL =         0.0000  VDWAALS    =        -0.0003
 EELEC  =       -37.3783  EHBOND  =         0.0000  RESTRAINT  =         0.0000
 DV/DL  =        85.4596
 ------------------------------------------------------------------------------

      R M S  F L U C T U A T I O N S

 NSTEP =     1000   TIME(PS) =       2.000  TEMP(K) =   107.68  PRESS =     0.0
 Etot   =         1.7728  EKtot   =         1.6049  EPtot      =         1.0934
 BOND   =         0.5266  ANGLE   =         0.9585  DIHED      =         0.0000
 1-4 NB =         0.0000  1-4 EEL =         0.0000  VDWAALS    =         0.0000
 EELEC  =         0.0057  EHBOND  =         0.0000  RESTRAINT  =         0.0000
 DV/DL  =         0.0129
 ------------------------------------------------------------------------------

      DV/DL, AVERAGES OVER    1000 STEPS

 NSTEP =     1000   TIME(PS) =       2.000  TEMP(K) =   107.68  PRESS =     0.0
 Etot   =         0.0000  EKtot   =         0.0000  EPtot      =        85.4596
 BOND   =         0.0000  ANGLE   =         0.0000  DIHED      =         0.0000
 1-4 NB =         0.0000  1-4 EEL =         0.0000  VDWAALS    =         0.0000
 EELEC  =        85.4596  EHBOND  =         0.0000  RESTRAINT  =         0.0000
 DV/DL  =        85.4596
 ------------------------------------------------------------------------------

      A V E R A G E S   O V E R    1000 S T E P S

 NSTEP =     2000   TIME(PS) =       4.000  TEMP(K) =   304.23  PRESS =     0.0
 Etot   =       -23.8312  EKtot   =         4.5342  EPtot      =       -28.3653
 BOND   =         1.1043  ANGLE   =         7.9090  DIHED      =         0.0000
 1-4 NB =         0.0000  1-4 EEL =         0.0000  VDWAALS    =        -0.0003
 EELEC  =       -37.3783  EHBOND  =         0.0000  RESTRAINT  =         0.0000
 DV/DL  =        85.4596
 ------------------------------------------------------------------------------

      R M S  F L U C T U A T I O N S

 NSTEP =     2000   TIME(PS) =       4.000  TEMP(K) =   107.47  PRESS =     0.0
 Etot   =         2.1984  EKtot   =         1.6017  EPtot      =         1.2482
 BOND   =         0.6090  ANGLE   =         1.0145  DIHED      =         0.0000
 1-4 NB =         0.0000  1-4 EEL =         0.0000  VDWAALS    =         0.0000
 EELEC  =         0.0043  EHBOND  =         0.0000  RESTRAINT  =         0.0000
 DV/DL  =         0.0099
 ------------------------------------------------------------------------------

      A V E R A G E S   O V E R    1000 S T E P S

 NSTEP =     2000   TIME(PS) =       4.000  TEMP(K) =   304.23  PRESS =     0.0
 Etot   =       -23.8312  EKtot   =         4.5342  EPtot      =       -28.3653
 BOND   =         1.1043  ANGLE   =         7.9090  DIHED      =         0.0000
 1-4 NB =         0.0000  1-4 EEL =         0.0000  VDWAALS    =        -0.0003
 EELEC  =       -37.3783  EHBOND  =         0.0000  RESTRAINT  =         0.0000
 DV/DL  =        85.4596
 ------------------------------------------------------------------------------

      R M S  F L U C T U A T I O N S

 NSTEP =     2000   TIME(PS) =       4.000  TEMP(K) =   107.47  PRESS =     0.0
 Etot   =         2.1984  EKtot   =         1.6017  EPtot      =         1.2482
 BOND   =         0.6090  ANGLE   =         1.0145  DIHED      =         0.0000
 1-4 NB =         0.0000  1-4 EEL =         0.0000  VDWAALS    =         0.0000
 EELEC  =         0.0043  EHBOND  =         0.0000  RESTRAINT  =         0.0000
 DV/DL  =         0.0099
 ------------------------------------------------------------------------------

      DV/DL, AVERAGES OVER    1000 STEPS

 NSTEP =     2000   TIME(PS) =       4.000  TEMP(K) =   107.47  PRESS =     0.0
 Etot   =         0.0000  EKtot   =         0.0000  EPtot      =        85.4596
 BOND   =         0.0000  ANGLE   =         0.0000  DIHED      =         0.0000
 1-4 NB =         0.0000  1-4 EEL =         0.0000  VDWAALS    =         0.0000
 EELEC  =        85.4596  EHBOND  =         0.0000  RESTRAINT  =         0.0000
 DV/DL  =        85.4596
 ------------------------------------------------------------------------------

      A V E R A G E S   O V E R    1000 S T E P S

 NSTEP =   500000   TIME(PS) =    1000.000  TEMP(K) =   320.74  PRESS =     0.0
 Etot   =       -22.7469  EKtot   =         4.7803  EPtot      =       -27.5273
 BOND   =         1.3237  ANGLE   =         8.5265  DIHED      =         0.0000
 1-4 NB =         0.0000  1-4 EEL =         0.0000  VDWAALS    =        -0.0003
 EELEC  =       -37.3772  EHBOND  =         0.0000  RESTRAINT  =         0.0000
 DV/DL  =        85.4570
 ------------------------------------------------------------------------------

      R M S  F L U C T U A T I O N S

 NSTEP =   500000   TIME(PS) =    1000.000  TEMP(K) =    98.93  PRESS =     0.0
 Etot   =         1.4584  EKtot   =         1.4744  EPtot      =         1.4879
 BOND   =         0.7566  ANGLE   =         1.2456  DIHED      =         0.0000
 1-4 NB =         0.0000  1-4 EEL =         0.0000  VDWAALS    =         0.0000
 EELEC  =         0.0040  EHBOND  =         0.0000  RESTRAINT  =         0.0000
 DV/DL  =         0.0092
 ------------------------------------------------------------------------------

      A V E R A G E S   O V E R    1000 S T E P S

 NSTEP =   500000   TIME(PS) =    1000.000  TEMP(K) =   320.74  PRESS =     0.0
 Etot   =       -22.7469  EKtot   =         4.7803  EPtot      =       -27.5273
 BOND   =         1.3237  ANGLE   =         8.5265  DIHED      =         0.0000
 1-4 NB =         0.0000  1-4 EEL =         0.0000  VDWAALS    =        -0.0003
 EELEC  =       -37.3772  EHBOND  =         0.0000  RESTRAINT  =         0.0000
 DV/DL  =        85.4570
 ------------------------------------------------------------------------------

      R M S  F L U C T U A T I O N S

 NSTEP =   500000   TIME(PS) =    1000.000  TEMP(K) =    98.93  PRESS =     0.0
 Etot   =         1.4584  EKtot   =         1.4744  EPtot      =         1.4879
 BOND   =         0.7566  ANGLE   =         1.2456  DIHED      =         0.0000
 1-4 NB =         0.0000  1-4 EEL =         0.0000  VDWAALS    =         0.0000
 EELEC  =         0.0040  EHBOND  =         0.0000  RESTRAINT  =         0.0000
 DV/DL  =         0.0092
 ------------------------------------------------------------------------------

      DV/DL, AVERAGES OVER    1000 STEPS

 NSTEP =   500000   TIME(PS) =    1000.000  TEMP(K) =    98.93  PRESS =     0.0
 Etot   =         0.0000  EKtot   =         0.0000  EPtot      =        85.4570
 BOND   =         0.0000  ANGLE   =         0.0000  DIHED      =         0.0000
 1-4 NB =         0.0000  1-4 EEL =         0.0000  VDWAALS    =         0.0000
 EELEC  =        85.4570  EHBOND  =         0.0000  RESTRAINT  =         0.0000
 DV/DL  =        85.4570
 ------------------------------------------------------------------------------

      A V E R A G E S   O V E R  500000 S T E P S

 NSTEP =   500000   TIME(PS) =    1000.000  TEMP(K) =   298.20  PRESS =     0.0
 Etot   =       -23.9209  EKtot   =         4.4444  EPtot      =       -28.3653
 BOND   =         1.2310  ANGLE   =         7.7819  DIHED      =         0.0000
 1-4 NB =         0.0000  1-4 EEL =         0.0000  VDWAALS    =        -0.0003
 EELEC  =       -37.3779  EHBOND  =         0.0000  RESTRAINT  =         0.0000
 DV/DL  =        85.4585
 ------------------------------------------------------------------------------

      R M S  F L U C T U A T I O N S

 NSTEP =   500000   TIME(PS) =    1000.000  TEMP(K) =   107.73  PRESS =     0.0
 Etot   =         2.0289  EKtot   =         1.6056  EPtot      =         1.2779
 BOND   =         0.8761  ANGLE   =         0.9538  DIHED      =         0.0000
 1-4 NB =         0.0000  1-4 EEL =         0.0000  VDWAALS    =         0.0000
 EELEC  =         0.0048  EHBOND  =         0.0000  RESTRAINT  =         0.0000
 DV/DL  =         0.0110
 ------------------------------------------------------------------------------

      A V E R A G E S   O V E R  500000 S T E P S

 NSTEP =   500000   TIME(PS) =    1000.000  TEMP(K) =   298.20  PRESS =     0.0
 Etot   =       -23.9209  EKtot   =         4.4444  EPtot      =       -28.3653
 BOND   =         1.2310  ANGLE   =         7.7819  DIHED      =         0.0000
 1-4 NB =         0.0000  1-4 EEL =         0.0000  VDWAALS    =        -0.0003
 EELEC  =       -37.3779  EHBOND  =         0.0000  RESTRAINT  =         0.0000
 DV/DL  =        85.4585
 ------------------------------------------------------------------------------

      R M S  F L U C T U A T I O N S

 NSTEP =   500000   TIME(PS) =    1000.000  TEMP(K) =   107.73  PRESS =     0.0
 Etot   =         2.0289  EKtot   =         1.6056  EPtot      =         1.2779
 BOND   =         0.8761  ANGLE   =         0.9538  DIHED      =         0.0000
 1-4 NB =         0.0000  1-4 EEL =         0.0000  VDWAALS    =         0.0000
 EELEC  =         0.0048  EHBOND  =         0.0000  RESTRAINT  =         0.0000
 DV/DL  =         0.0110
 ------------------------------------------------------------------------------

      DV/DL, AVERAGES OVER  500000 STEPS

 NSTEP =   500000   TIME(PS) =    1000.000  TEMP(K) =   107.73  PRESS =     0.0
 Etot   =         0.0000  EKtot   =         0.0000  EPtot      =        85.4585
 BOND   =         0.0000  ANGLE   =         0.0000  DIHED      =         0.0000
 1-4 NB =         0.0000  1-4 EEL =         0.0000  VDWAALS    =         0.0000
 EELEC  =        85.4585  EHBOND  =         0.0000  RESTRAINT  =         0.0000
 DV/DL  =        85.4585
 ------------------------------------------------------------------------------
