-------------------------------------------------------
          Amber 20 PMEMD                              2020
          -------------------------------------------------------

  [-O]verwriting output

File Assignments:

 Here is the input file:

 &cntrl
   nstlim=500000, nscm=1000,
   ntx=5, irest=1, ntpr=1000,
   tempi=300.0, temp0=300.0, ntt=3, gamma_ln=2.0,
   ntp=1, pres0=1.01325, taup=5.0,
   ntb=2, igb=0, cut=10.0,
   dt=0.002, ig=-1,
   ntc=2, ntf=2,
   iwrap=0,
   ntwr=1000, ntwx=50000, ntave=1000,
   ioutfm=1, ntwv=-1,
   ifsc = 0, icfe=1,
   clambda=0.99078,
   timask1=':1',
   timask2=':2', crgmask = ':2',
/

Note: ig = -1. Setting random seed to   955912 based on wallclock time in
      microseconds.

--------------------------------------------------------------------------------
   1.  RESOURCE   USE:
--------------------------------------------------------------------------------

 getting box info from netcdf restart file
 NATOM  =   11419 NTYPES =       4 NBONH =   11409 MBONA  =       8
 NTHETH =       0 MTHETA =      12 NPHIH =       0 MPHIA  =       0
 NHPARM =       0 NPARM  =       0 NNB   =   15234 NRES   =    3805
 NBONA  =       8 NTHETA =      12 NPHIA =       0 NUMBND =       3
 NUMANG =       1 NPTRA  =       0 NATYP =       4 NPHB   =       1
 IFBOX  =       2 NMXRS  =       5 IFCAP =       0 NEXTRA =       0
 NCOPY  =       0

     BOX TYPE: TRUNCATED OCTAHEDRON

--------------------------------------------------------------------------------
   2.  CONTROL  DATA  FOR  THE  RUN
--------------------------------------------------------------------------------

default_name

General flags:
     imin    =       0, nmropt  =       0

Nature and format of input:
     ntx     =       5, irest   =       1, ntrx    =       1

Nature and format of output:
     ntxo    =       2, ntpr    =    1000, ntrx    =       1, ntwr    =    1000
     iwrap   =       0, ntwx    =   50000, ntwv    =      -1, ntwe    =       0
     ioutfm  =       1, ntwprt  =       0, idecomp =       0, rbornstat=      0

Potential function:
     ntf     =       2, ntb     =       2, igb     =       0, nsnb    =      25
     ipol    =       0, gbsa    =       0, iesp    =       0
     dielc   =   1.00000, cut     =  10.00000, intdiel =   1.00000

Frozen or restrained atoms:
     ibelly  =       0, ntr     =       0

Molecular dynamics:
     nstlim  =    500000, nscm    =      1000, nrespa  =         1
     t       =   0.00000, dt      =   0.00200, vlimit  =  -1.00000

Langevin dynamics temperature regulation:
     ig      =  955912
     temp0   = 300.00000, tempi   = 300.00000, gamma_ln=   2.00000

Pressure regulation:
     ntp     =       1
     pres0   =   1.01325, comp    =  44.60000, taup    =   5.00000

SHAKE:
     ntc     =       2, jfastw  =       0
     tol     =   0.00001

Free energy options:
     icfe    =       1, ifsc    =       0, klambda =       1
     clambda =  0.9908, scalpha =  0.5000, scbeta  = 12.0000
     sceeorder =       2
     dynlmb =  0.0000 logdvdl =       0

Ewald parameters:
     verbose =       0, ew_type =       0, nbflag  =       1, use_pme =       1
     vdwmeth =       1, eedmeth =       1, netfrc  =       1
     Box X =   55.004   Box Y =   55.004   Box Z =   55.004
     Alpha =  109.471   Beta  =  109.471   Gamma =  109.471
     NFFT1 =   56       NFFT2 =   56       NFFT3 =   56
     Cutoff=   10.000   Tol   =0.100E-04
     Ewald Coefficient =  0.27511
     Interpolation order =    4
     TI Mask 1 :1; matches      5 atoms
     TI Mask 2 :2; matches      5 atoms
     TI region 1:   11414 atoms
     TI region 2:   11414 atoms
Removing charge of       1.4352 from atom       6
Removing charge of      -1.1088 from atom       7
Removing charge of      -1.1088 from atom       8
Removing charge of      -1.1088 from atom       9
Removing charge of      -1.1088 from atom      10
Total charge of  -2.99999999 removed from       5 atoms
     Checking for mismatched coordinates.

--------------------------------------------------------------------------------
   3.  ATOMIC COORDINATES AND VELOCITIES
--------------------------------------------------------------------------------

default_name
 begin time read from input coords =   200.000 ps

 Number of triangulated 3-point waters found:     3803

     Sum of charges for TI region  1 =  -2.99999999
     Skip neutralizing charges...

     Sum of charges for TI region  2 =   0.00000000
     Skip neutralizing charges...

--------------------------------------------------------------------------------
   4.  RESULTS
 NSTEP =     1000   TIME(PS) =     202.000  TEMP(K) =   300.66  PRESS =  -855.0
 Etot   =    -28704.0165  EKtot   =      6820.9777  EPtot      =    -35524.9942
 BOND   =         1.4535  ANGLE   =         7.0543  DIHED      =         0.0000
 1-4 NB =         0.0000  1-4 EEL =         0.0000  VDWAALS    =      5210.0541
 EELEC  =    -40743.5561  EHBOND  =         0.0000  RESTRAINT  =         0.0000
 EKCMT  =      3415.1715  VIRIAL  =      5737.9560  VOLUME     =    125823.8892
                                                    Density    =         0.9055
 DV/DL  =        85.0573
 ------------------------------------------------------------------------------

      A V E R A G E S   O V E R    1000 S T E P S

 NSTEP =     1000   TIME(PS) =     202.000  TEMP(K) =   301.30  PRESS = -1006.0
 Etot   =    -28629.7421  EKtot   =      6835.6148  EPtot      =    -35465.3569
 BOND   =         1.1658  ANGLE   =         7.7867  DIHED      =         0.0000
 1-4 NB =         0.0000  1-4 EEL =         0.0000  VDWAALS    =      5153.6627
 EELEC  =    -40627.9722  EHBOND  =         0.0000  RESTRAINT  =         0.0000
 EKCMT  =      3444.8451  VIRIAL  =      6202.6328  VOLUME     =    126922.3822
                                                    Density    =         0.8977
 DV/DL  =       114.6088
 ------------------------------------------------------------------------------

      R M S  F L U C T U A T I O N S

 NSTEP =     1000   TIME(PS) =     202.000  TEMP(K) =     2.35  PRESS =   151.6
 Etot   =        48.5514  EKtot   =        53.3582  EPtot      =        68.2210
 BOND   =         0.7523  ANGLE   =         0.7160  DIHED      =         0.0000
 1-4 NB =         0.0000  1-4 EEL =         0.0000  VDWAALS    =        83.5829
 EELEC  =       118.1225  EHBOND  =         0.0000  RESTRAINT  =         0.0000
 EKCMT  =        37.4554  VIRIAL  =       423.3759  VOLUME     =       651.5025
                                                    Density    =         0.0046
 DV/DL  =        19.7448
 ------------------------------------------------------------------------------

      A V E R A G E S   O V E R    1000 S T E P S

 NSTEP =     1000   TIME(PS) =     202.000  TEMP(K) =   301.30  PRESS = -1006.0
 Etot   =    -28629.7421  EKtot   =      6835.6148  EPtot      =    -35465.3569
 BOND   =         1.1658  ANGLE   =         7.7867  DIHED      =         0.0000
 1-4 NB =         0.0000  1-4 EEL =         0.0000  VDWAALS    =      5153.6627
 EELEC  =    -40627.9722  EHBOND  =         0.0000  RESTRAINT  =         0.0000
 EKCMT  =      3444.8451  VIRIAL  =      6202.6328  VOLUME     =    126922.3822
                                                    Density    =         0.8977
 DV/DL  =       114.6088
 ------------------------------------------------------------------------------

      R M S  F L U C T U A T I O N S

 NSTEP =     1000   TIME(PS) =     202.000  TEMP(K) =     2.35  PRESS =   151.6
 Etot   =        48.5514  EKtot   =        53.3582  EPtot      =        68.2210
 BOND   =         0.7523  ANGLE   =         0.7160  DIHED      =         0.0000
 1-4 NB =         0.0000  1-4 EEL =         0.0000  VDWAALS    =        83.5829
 EELEC  =       118.1225  EHBOND  =         0.0000  RESTRAINT  =         0.0000
 EKCMT  =        37.4554  VIRIAL  =       423.3759  VOLUME     =       651.5025
                                                    Density    =         0.0046
 DV/DL  =        19.7448
 ------------------------------------------------------------------------------

      DV/DL, AVERAGES OVER    1000 STEPS

 NSTEP =     1000   TIME(PS) =     202.000  TEMP(K) =     2.35  PRESS =     0.0
 Etot   =         0.0000  EKtot   =         0.0000  EPtot      =       114.6088
 BOND   =         0.0000  ANGLE   =         0.0000  DIHED      =         0.0000
 1-4 NB =         0.0000  1-4 EEL =         0.0000  VDWAALS    =         0.0000
 EELEC  =       114.6088  EHBOND  =         0.0000  RESTRAINT  =         0.0000
 EKCMT  =         0.0000  VIRIAL  =         0.0000  VOLUME     =         0.0000
                                                    Density    =         0.0000
 DV/DL  =       114.6088
 ------------------------------------------------------------------------------

      A V E R A G E S   O V E R    1000 S T E P S

 NSTEP =     2000   TIME(PS) =     204.000  TEMP(K) =   299.37  PRESS =  -931.6
 Etot   =    -28871.7775  EKtot   =      6791.7739  EPtot      =    -35663.5514
 BOND   =         1.3081  ANGLE   =         7.2447  DIHED      =         0.0000
 1-4 NB =         0.0000  1-4 EEL =         0.0000  VDWAALS    =      5189.5437
 EELEC  =    -40861.6479  EHBOND  =         0.0000  RESTRAINT  =         0.0000
 EKCMT  =      3404.6292  VIRIAL  =      5914.5757  VOLUME     =    124778.9390
                                                    Density    =         0.9131
 DV/DL  =       114.1843
 ------------------------------------------------------------------------------

      R M S  F L U C T U A T I O N S

 NSTEP =     2000   TIME(PS) =     204.000  TEMP(K) =     2.77  PRESS =   159.1
 Etot   =       132.1333  EKtot   =        62.9090  EPtot      =        99.5729
 BOND   =         0.9198  ANGLE   =         0.5901  DIHED      =         0.0000
 1-4 NB =         0.0000  1-4 EEL =         0.0000  VDWAALS    =        82.5380
 EELEC  =       138.2041  EHBOND  =         0.0000  RESTRAINT  =         0.0000
 EKCMT  =        40.0806  VIRIAL  =       421.3906  VOLUME     =       594.9712
                                                    Density    =         0.0044
 DV/DL  =        20.6174
 ------------------------------------------------------------------------------

      A V E R A G E S   O V E R    1000 S T E P S

 NSTEP =     2000   TIME(PS) =     204.000  TEMP(K) =   299.37  PRESS =  -931.6
 Etot   =    -28871.7775  EKtot   =      6791.7739  EPtot      =    -35663.5514
 BOND   =         1.3081  ANGLE   =         7.2447  DIHED      =         0.0000
 1-4 NB =         0.0000  1-4 EEL =         0.0000  VDWAALS    =      5189.5437
 EELEC  =    -40861.6479  EHBOND  =         0.0000  RESTRAINT  =         0.0000
 EKCMT  =      3404.6292  VIRIAL  =      5914.5757  VOLUME     =    124778.9390
                                                    Density    =         0.9131
 DV/DL  =       114.1843
 ------------------------------------------------------------------------------

      R M S  F L U C T U A T I O N S

 NSTEP =     2000   TIME(PS) =     204.000  TEMP(K) =     2.77  PRESS =   159.1
 Etot   =       132.1333  EKtot   =        62.9090  EPtot      =        99.5729
 BOND   =         0.9198  ANGLE   =         0.5901  DIHED      =         0.0000
 1-4 NB =         0.0000  1-4 EEL =         0.0000  VDWAALS    =        82.5380
 EELEC  =       138.2041  EHBOND  =         0.0000  RESTRAINT  =         0.0000
 EKCMT  =        40.0806  VIRIAL  =       421.3906  VOLUME     =       594.9712
                                                    Density    =         0.0044
 DV/DL  =        20.6174
 ------------------------------------------------------------------------------

      DV/DL, AVERAGES OVER    1000 STEPS

 NSTEP =     2000   TIME(PS) =     204.000  TEMP(K) =     2.77  PRESS =     0.0
 Etot   =         0.0000  EKtot   =         0.0000  EPtot      =       114.1843
 BOND   =         0.0000  ANGLE   =         0.0000  DIHED      =         0.0000
 1-4 NB =         0.0000  1-4 EEL =         0.0000  VDWAALS    =         0.0000
 EELEC  =       114.1843  EHBOND  =         0.0000  RESTRAINT  =         0.0000
 EKCMT  =         0.0000  VIRIAL  =         0.0000  VOLUME     =         0.0000
                                                    Density    =         0.0000
 DV/DL  =       114.1843
 ------------------------------------------------------------------------------

      A V E R A G E S   O V E R    1000 S T E P S

 NSTEP =   500000   TIME(PS) =    1200.000  TEMP(K) =   300.76  PRESS =    58.8
 Etot   =    -29463.5262  EKtot   =      6823.3205  EPtot      =    -36286.8467
 BOND   =         0.9795  ANGLE   =         7.6417  DIHED      =         0.0000
 1-4 NB =         0.0000  1-4 EEL =         0.0000  VDWAALS    =      5457.8039
 EELEC  =    -41753.2718  EHBOND  =         0.0000  RESTRAINT  =         0.0000
 EKCMT  =      3420.9462  VIRIAL  =      3273.9033  VOLUME     =    115861.8422
                                                    Density    =         0.9833
 DV/DL  =       126.4033
 ------------------------------------------------------------------------------

      R M S  F L U C T U A T I O N S

 NSTEP =   500000   TIME(PS) =    1200.000  TEMP(K) =     2.48  PRESS =   182.6
 Etot   =        83.2258  EKtot   =        56.2829  EPtot      =        74.0787
 BOND   =         0.4876  ANGLE   =         0.5826  DIHED      =         0.0000
 1-4 NB =         0.0000  1-4 EEL =         0.0000  VDWAALS    =        91.6924
 EELEC  =       124.4795  EHBOND  =         0.0000  RESTRAINT  =         0.0000
 EKCMT  =        35.8361  VIRIAL  =       446.9549  VOLUME     =        47.4817
                                                    Density    =         0.0004
 DV/DL  =        24.1234
 ------------------------------------------------------------------------------

      A V E R A G E S   O V E R    1000 S T E P S

 NSTEP =   500000   TIME(PS) =    1200.000  TEMP(K) =   300.76  PRESS =    58.8
 Etot   =    -29463.5262  EKtot   =      6823.3205  EPtot      =    -36286.8467
 BOND   =         0.9795  ANGLE   =         7.6417  DIHED      =         0.0000
 1-4 NB =         0.0000  1-4 EEL =         0.0000  VDWAALS    =      5457.8039
 EELEC  =    -41753.2718  EHBOND  =         0.0000  RESTRAINT  =         0.0000
 EKCMT  =      3420.9462  VIRIAL  =      3273.9033  VOLUME     =    115861.8422
                                                    Density    =         0.9833
 DV/DL  =       126.4033
 ------------------------------------------------------------------------------

      R M S  F L U C T U A T I O N S

 NSTEP =   500000   TIME(PS) =    1200.000  TEMP(K) =     2.48  PRESS =   182.6
 Etot   =        83.2258  EKtot   =        56.2829  EPtot      =        74.0787
 BOND   =         0.4876  ANGLE   =         0.5826  DIHED      =         0.0000
 1-4 NB =         0.0000  1-4 EEL =         0.0000  VDWAALS    =        91.6924
 EELEC  =       124.4795  EHBOND  =         0.0000  RESTRAINT  =         0.0000
 EKCMT  =        35.8361  VIRIAL  =       446.9549  VOLUME     =        47.4817
                                                    Density    =         0.0004
 DV/DL  =        24.1234
 ------------------------------------------------------------------------------

      DV/DL, AVERAGES OVER    1000 STEPS

 NSTEP =   500000   TIME(PS) =    1200.000  TEMP(K) =     2.48  PRESS =     0.0
 Etot   =         0.0000  EKtot   =         0.0000  EPtot      =       126.4033
 BOND   =         0.0000  ANGLE   =         0.0000  DIHED      =         0.0000
 1-4 NB =         0.0000  1-4 EEL =         0.0000  VDWAALS    =         0.0000
 EELEC  =       126.4033  EHBOND  =         0.0000  RESTRAINT  =         0.0000
 EKCMT  =         0.0000  VIRIAL  =         0.0000  VOLUME     =         0.0000
                                                    Density    =         0.0000
 DV/DL  =       126.4033
 ------------------------------------------------------------------------------

      A V E R A G E S   O V E R  500000 S T E P S

 NSTEP =   500000   TIME(PS) =    1200.000  TEMP(K) =   300.24  PRESS =   -10.2
 Etot   =    -29442.5177  EKtot   =      6811.4759  EPtot      =    -36253.9936
 BOND   =         1.2396  ANGLE   =         7.7363  DIHED      =         0.0000
 1-4 NB =         0.0000  1-4 EEL =         0.0000  VDWAALS    =      5416.2201
 EELEC  =    -41679.1896  EHBOND  =         0.0000  RESTRAINT  =         0.0000
 EKCMT  =      3416.3373  VIRIAL  =      3443.2376  VOLUME     =    116003.9762
                                                    Density    =         0.9822
 DV/DL  =       123.9915
 ------------------------------------------------------------------------------

      R M S  F L U C T U A T I O N S

 NSTEP =   500000   TIME(PS) =    1200.000  TEMP(K) =     2.79  PRESS =   192.8
 Etot   =       124.5932  EKtot   =        63.4050  EPtot      =       105.7799
 BOND   =         0.8815  ANGLE   =         0.9190  DIHED      =         0.0000
 1-4 NB =         0.0000  1-4 EEL =         0.0000  VDWAALS    =        93.9605
 EELEC  =       162.9389  EHBOND  =         0.0000  RESTRAINT  =         0.0000
 EKCMT  =        44.7497  VIRIAL  =       488.5425  VOLUME     =       811.1007
                                                    Density    =         0.0064
 DV/DL  =        23.1251
 ------------------------------------------------------------------------------

      A V E R A G E S   O V E R  500000 S T E P S

 NSTEP =   500000   TIME(PS) =    1200.000  TEMP(K) =   300.24  PRESS =   -10.2
 Etot   =    -29442.5177  EKtot   =      6811.4759  EPtot      =    -36253.9936
 BOND   =         1.2396  ANGLE   =         7.7363  DIHED      =         0.0000
 1-4 NB =         0.0000  1-4 EEL =         0.0000  VDWAALS    =      5416.2201
 EELEC  =    -41679.1896  EHBOND  =         0.0000  RESTRAINT  =         0.0000
 EKCMT  =      3416.3373  VIRIAL  =      3443.2376  VOLUME     =    116003.9762
                                                    Density    =         0.9822
 DV/DL  =       123.9915
 ------------------------------------------------------------------------------

      R M S  F L U C T U A T I O N S

 NSTEP =   500000   TIME(PS) =    1200.000  TEMP(K) =     2.79  PRESS =   192.8
 Etot   =       124.5932  EKtot   =        63.4050  EPtot      =       105.7799
 BOND   =         0.8815  ANGLE   =         0.9190  DIHED      =         0.0000
 1-4 NB =         0.0000  1-4 EEL =         0.0000  VDWAALS    =        93.9605
 EELEC  =       162.9389  EHBOND  =         0.0000  RESTRAINT  =         0.0000
 EKCMT  =        44.7497  VIRIAL  =       488.5425  VOLUME     =       811.1007
                                                    Density    =         0.0064
 DV/DL  =        23.1251
 ------------------------------------------------------------------------------

      DV/DL, AVERAGES OVER  500000 STEPS

 NSTEP =   500000   TIME(PS) =    1200.000  TEMP(K) =     2.79  PRESS =     0.0
 Etot   =         0.0000  EKtot   =         0.0000  EPtot      =       123.9915
 BOND   =         0.0000  ANGLE   =         0.0000  DIHED      =         0.0000
 1-4 NB =         0.0000  1-4 EEL =         0.0000  VDWAALS    =         0.0000
 EELEC  =       123.9915  EHBOND  =         0.0000  RESTRAINT  =         0.0000
 EKCMT  =         0.0000  VIRIAL  =         0.0000  VOLUME     =         0.0000
                                                    Density    =         0.0000
 DV/DL  =       123.9915
 ------------------------------------------------------------------------------
