-------------------------------------------------------
          Amber 20 PMEMD                              2020
          -------------------------------------------------------

  [-O]verwriting output

File Assignments:

 Here is the input file:

 &cntrl
   nstlim=1000000, nscm=1000,
   ntx=1, irest=0, ntpr=1000,
   tempi=300.0, temp0=300.0, ntt=3, gamma_ln=2.0,
   ntb=1, igb=0, cut=10.0,
   dt=0.001, ig=-1,
   ntc=1, ntf=1,
   iwrap=0,
   ntwr=1000, ntwx=50000, ntave=1000,
   ioutfm=1, ntwv=-1,
   ifsc = 1, icfe=1,
   clambda=0.79366,
   timask1=':1',
   timask2=':2',
/

Note: ig = -1. Setting random seed to   270255 based on wallclock time in
      microseconds.

--------------------------------------------------------------------------------
   1.  RESOURCE   USE:
--------------------------------------------------------------------------------

 getting box info from netcdf restart file
 NATOM  =      10 NTYPES =       6 NBONH =       0 MBONA  =       8
 NTHETH =       0 MTHETA =      12 NPHIH =       0 MPHIA  =       0
 NHPARM =       0 NPARM  =       0 NNB   =      22 NRES   =       2
 NBONA  =       8 NTHETA =      12 NPHIA =       0 NUMBND =       1
 NUMANG =       1 NPTRA  =       0 NATYP =       4 NPHB   =       1
 IFBOX  =       2 NMXRS  =       5 IFCAP =       0 NEXTRA =       0
 NCOPY  =       0

     BOX TYPE: TRUNCATED OCTAHEDRON

--------------------------------------------------------------------------------
   2.  CONTROL  DATA  FOR  THE  RUN
--------------------------------------------------------------------------------

default_name

General flags:
     imin    =       0, nmropt  =       0

Nature and format of input:
     ntx     =       1, irest   =       0, ntrx    =       1

Nature and format of output:
     ntxo    =       2, ntpr    =    1000, ntrx    =       1, ntwr    =    1000
     iwrap   =       0, ntwx    =   50000, ntwv    =      -1, ntwe    =       0
     ioutfm  =       1, ntwprt  =       0, idecomp =       0, rbornstat=      0

Potential function:
     ntf     =       1, ntb     =       1, igb     =       0, nsnb    =      25
     ipol    =       0, gbsa    =       0, iesp    =       0
     dielc   =   1.00000, cut     =  10.00000, intdiel =   1.00000

Frozen or restrained atoms:
     ibelly  =       0, ntr     =       0

Molecular dynamics:
     nstlim  =   1000000, nscm    =      1000, nrespa  =         1
     t       =   0.00000, dt      =   0.00100, vlimit  =  -1.00000

Langevin dynamics temperature regulation:
     ig      =  270255
     temp0   = 300.00000, tempi   = 300.00000, gamma_ln=   2.00000

Free energy options:
     icfe    =       1, ifsc    =       1, klambda =       1
     clambda =  0.7937, scalpha =  0.5000, scbeta  = 12.0000
     sceeorder =       2
     dynlmb =  0.0000 logdvdl =       0

Ewald parameters:
     verbose =       0, ew_type =       0, nbflag  =       1, use_pme =       1
     vdwmeth =       1, eedmeth =       1, netfrc  =       1
     Box X =   55.004   Box Y =   55.004   Box Z =   55.004
     Alpha =  109.471   Beta  =  109.471   Gamma =  109.471
     NFFT1 =   56       NFFT2 =   56       NFFT3 =   56
     Cutoff=   10.000   Tol   =0.100E-04
     Ewald Coefficient =  0.27511
     Interpolation order =    4
     TI Mask 1 :1; matches      5 atoms
     TI Mask 2 :2; matches      5 atoms
     TI region 1:       5 atoms
     TI region 2:       5 atoms

--------------------------------------------------------------------------------
   3.  ATOMIC COORDINATES AND VELOCITIES
--------------------------------------------------------------------------------

default_name
 begin time read from input coords =     0.000 ps

 Number of triangulated 3-point waters found:        0
 Number of shake restraints removed in TI region  1 :        0
 Number of shake restraints removed in TI region  2 :        0

     Sum of charges for TI region  1 =  -2.99999999
     Skip neutralizing charges...

     Sum of charges for TI region  2 =   0.00000000
     Skip neutralizing charges...

--------------------------------------------------------------------------------
   4.  RESULTS
 NSTEP =        0   TIME(PS) =       0.000  TEMP(K) =   361.48  PRESS =     0.0
 Etot   =        -5.9876  EKtot   =         5.3875  EPtot      =       -11.3751
 BOND   =         0.0000  ANGLE   =         6.2592  DIHED      =         0.0000
 1-4 NB =         0.0000  1-4 EEL =         0.0000  VDWAALS    =        -0.0001
 EELEC  =       -17.6342  EHBOND  =         0.0000  RESTRAINT  =         0.0000
 DV/DL  =        85.4623
 ------------------------------------------------------------------------------

      A V E R A G E S   O V E R    1000 S T E P S

 NSTEP =     1000   TIME(PS) =       1.000  TEMP(K) =   276.74  PRESS =     0.0
 Etot   =        -4.9689  EKtot   =         4.1245  EPtot      =        -9.0934
 BOND   =         1.4705  ANGLE   =         7.0692  DIHED      =         0.0000
 1-4 NB =         0.0000  1-4 EEL =         0.0000  VDWAALS    =        -0.0001
 EELEC  =       -17.6330  EHBOND  =         0.0000  RESTRAINT  =         0.0000
 DV/DL  =        85.4547
 ------------------------------------------------------------------------------

      R M S  F L U C T U A T I O N S

 NSTEP =     1000   TIME(PS) =       1.000  TEMP(K) =    76.61  PRESS =     0.0
 Etot   =         1.4399  EKtot   =         1.1418  EPtot      =         1.1264
 BOND   =         1.0112  ANGLE   =         0.4490  DIHED      =         0.0000
 1-4 NB =         0.0000  1-4 EEL =         0.0000  VDWAALS    =         0.0000
 EELEC  =         0.0019  EHBOND  =         0.0000  RESTRAINT  =         0.0000
 DV/DL  =         0.0278
 ------------------------------------------------------------------------------

      A V E R A G E S   O V E R    1000 S T E P S

 NSTEP =     1000   TIME(PS) =       1.000  TEMP(K) =   276.39  PRESS =     0.0
 Etot   =        -4.9741  EKtot   =         4.1193  EPtot      =        -9.0934
 BOND   =         1.4705  ANGLE   =         7.0692  DIHED      =         0.0000
 1-4 NB =         0.0000  1-4 EEL =         0.0000  VDWAALS    =        -0.0001
 EELEC  =       -17.6330  EHBOND  =         0.0000  RESTRAINT  =         0.0000
 DV/DL  =        85.4547
 ------------------------------------------------------------------------------

      R M S  F L U C T U A T I O N S

 NSTEP =     1000   TIME(PS) =       1.000  TEMP(K) =    76.36  PRESS =     0.0
 Etot   =         1.4345  EKtot   =         1.1381  EPtot      =         1.1264
 BOND   =         1.0112  ANGLE   =         0.4490  DIHED      =         0.0000
 1-4 NB =         0.0000  1-4 EEL =         0.0000  VDWAALS    =         0.0000
 EELEC  =         0.0019  EHBOND  =         0.0000  RESTRAINT  =         0.0000
 DV/DL  =         0.0278
 ------------------------------------------------------------------------------

      DV/DL, AVERAGES OVER    1000 STEPS

 NSTEP =     1000   TIME(PS) =       1.000  TEMP(K) =    76.36  PRESS =     0.0
 Etot   =         0.0000  EKtot   =         0.0000  EPtot      =        85.4547
 BOND   =        -0.0013  ANGLE   =        -0.0005  DIHED      =         0.0000
 1-4 NB =         0.0000  1-4 EEL =         0.0000  VDWAALS    =         0.0003
 EELEC  =        85.4562  EHBOND  =         0.0000  RESTRAINT  =         0.0000
 DV/DL  =        85.4547
 ------------------------------------------------------------------------------

      A V E R A G E S   O V E R    1000 S T E P S

 NSTEP =     2000   TIME(PS) =       2.000  TEMP(K) =   298.58  PRESS =     0.0
 Etot   =        -3.8110  EKtot   =         4.4500  EPtot      =        -8.2610
 BOND   =         1.4790  ANGLE   =         7.8929  DIHED      =         0.0000
 1-4 NB =         0.0000  1-4 EEL =         0.0000  VDWAALS    =        -0.0001
 EELEC  =       -17.6328  EHBOND  =         0.0000  RESTRAINT  =         0.0000
 DV/DL  =        85.4554
 ------------------------------------------------------------------------------

      R M S  F L U C T U A T I O N S

 NSTEP =     2000   TIME(PS) =       2.000  TEMP(K) =    69.12  PRESS =     0.0
 Etot   =         0.8061  EKtot   =         1.0302  EPtot      =         0.9827
 BOND   =         0.8904  ANGLE   =         0.7496  DIHED      =         0.0000
 1-4 NB =         0.0000  1-4 EEL =         0.0000  VDWAALS    =         0.0000
 EELEC  =         0.0019  EHBOND  =         0.0000  RESTRAINT  =         0.0000
 DV/DL  =         0.0268
 ------------------------------------------------------------------------------

      A V E R A G E S   O V E R    1000 S T E P S

 NSTEP =     2000   TIME(PS) =       2.000  TEMP(K) =   298.79  PRESS =     0.0
 Etot   =        -3.8078  EKtot   =         4.4532  EPtot      =        -8.2610
 BOND   =         1.4790  ANGLE   =         7.8929  DIHED      =         0.0000
 1-4 NB =         0.0000  1-4 EEL =         0.0000  VDWAALS    =        -0.0001
 EELEC  =       -17.6328  EHBOND  =         0.0000  RESTRAINT  =         0.0000
 DV/DL  =        85.4554
 ------------------------------------------------------------------------------

      R M S  F L U C T U A T I O N S

 NSTEP =     2000   TIME(PS) =       2.000  TEMP(K) =    69.39  PRESS =     0.0
 Etot   =         0.8159  EKtot   =         1.0342  EPtot      =         0.9827
 BOND   =         0.8904  ANGLE   =         0.7496  DIHED      =         0.0000
 1-4 NB =         0.0000  1-4 EEL =         0.0000  VDWAALS    =         0.0000
 EELEC  =         0.0019  EHBOND  =         0.0000  RESTRAINT  =         0.0000
 DV/DL  =         0.0268
 ------------------------------------------------------------------------------

      DV/DL, AVERAGES OVER    1000 STEPS

 NSTEP =     2000   TIME(PS) =       2.000  TEMP(K) =    69.39  PRESS =     0.0
 Etot   =         0.0000  EKtot   =         0.0000  EPtot      =        85.4554
 BOND   =         0.0004  ANGLE   =        -0.0003  DIHED      =         0.0000
 1-4 NB =         0.0000  1-4 EEL =         0.0000  VDWAALS    =         0.0003
 EELEC  =        85.4550  EHBOND  =         0.0000  RESTRAINT  =         0.0000
 DV/DL  =        85.4554
 ------------------------------------------------------------------------------

      A V E R A G E S   O V E R    1000 S T E P S

 NSTEP =  1000000   TIME(PS) =    1000.000  TEMP(K) =   320.53  PRESS =     0.0
 Etot   =        -3.8874  EKtot   =         4.7772  EPtot      =        -8.6646
 BOND   =         1.1458  ANGLE   =         7.8225  DIHED      =         0.0000
 1-4 NB =         0.0000  1-4 EEL =         0.0000  VDWAALS    =        -0.0001
 EELEC  =       -17.6329  EHBOND  =         0.0000  RESTRAINT  =         0.0000
 DV/DL  =        85.4566
 ------------------------------------------------------------------------------

      R M S  F L U C T U A T I O N S

 NSTEP =  1000000   TIME(PS) =    1000.000  TEMP(K) =   107.98  PRESS =     0.0
 Etot   =         1.4830  EKtot   =         1.6093  EPtot      =         1.0479
 BOND   =         0.6311  ANGLE   =         0.9465  DIHED      =         0.0000
 1-4 NB =         0.0000  1-4 EEL =         0.0000  VDWAALS    =         0.0000
 EELEC  =         0.0018  EHBOND  =         0.0000  RESTRAINT  =         0.0000
 DV/DL  =         0.0267
 ------------------------------------------------------------------------------

      A V E R A G E S   O V E R    1000 S T E P S

 NSTEP =  1000000   TIME(PS) =    1000.000  TEMP(K) =   320.51  PRESS =     0.0
 Etot   =        -3.8877  EKtot   =         4.7769  EPtot      =        -8.6646
 BOND   =         1.1458  ANGLE   =         7.8225  DIHED      =         0.0000
 1-4 NB =         0.0000  1-4 EEL =         0.0000  VDWAALS    =        -0.0001
 EELEC  =       -17.6329  EHBOND  =         0.0000  RESTRAINT  =         0.0000
 DV/DL  =        85.4566
 ------------------------------------------------------------------------------

      R M S  F L U C T U A T I O N S

 NSTEP =  1000000   TIME(PS) =    1000.000  TEMP(K) =   108.14  PRESS =     0.0
 Etot   =         1.4863  EKtot   =         1.6117  EPtot      =         1.0479
 BOND   =         0.6311  ANGLE   =         0.9465  DIHED      =         0.0000
 1-4 NB =         0.0000  1-4 EEL =         0.0000  VDWAALS    =         0.0000
 EELEC  =         0.0018  EHBOND  =         0.0000  RESTRAINT  =         0.0000
 DV/DL  =         0.0267
 ------------------------------------------------------------------------------

      DV/DL, AVERAGES OVER    1000 STEPS

 NSTEP =  1000000   TIME(PS) =    1000.000  TEMP(K) =   108.14  PRESS =     0.0
 Etot   =         0.0000  EKtot   =         0.0000  EPtot      =        85.4566
 BOND   =         0.0012  ANGLE   =        -0.0004  DIHED      =         0.0000
 1-4 NB =         0.0000  1-4 EEL =         0.0000  VDWAALS    =         0.0003
 EELEC  =        85.4555  EHBOND  =         0.0000  RESTRAINT  =         0.0000
 DV/DL  =        85.4566
 ------------------------------------------------------------------------------

      A V E R A G E S   O V E R 1000000 S T E P S

 NSTEP =  1000000   TIME(PS) =    1000.000  TEMP(K) =   306.71  PRESS =     0.0
 Etot   =        -4.0130  EKtot   =         4.5711  EPtot      =        -8.5841
 BOND   =         1.2764  ANGLE   =         7.7731  DIHED      =         0.0000
 1-4 NB =         0.0000  1-4 EEL =         0.0000  VDWAALS    =        -0.0001
 EELEC  =       -17.6335  EHBOND  =         0.0000  RESTRAINT  =         0.0000
 DV/DL  =        85.4589
 ------------------------------------------------------------------------------

      R M S  F L U C T U A T I O N S

 NSTEP =  1000000   TIME(PS) =    1000.000  TEMP(K) =   114.25  PRESS =     0.0
 Etot   =         2.1750  EKtot   =         1.7027  EPtot      =         1.3245
 BOND   =         0.9012  ANGLE   =         0.9552  DIHED      =         0.0000
 1-4 NB =         0.0000  1-4 EEL =         0.0000  VDWAALS    =         0.0000
 EELEC  =         0.0023  EHBOND  =         0.0000  RESTRAINT  =         0.0000
 DV/DL  =         0.0276
 ------------------------------------------------------------------------------

      A V E R A G E S   O V E R 1000000 S T E P S

 NSTEP =  1000000   TIME(PS) =    1000.000  TEMP(K) =   306.70  PRESS =     0.0
 Etot   =        -4.0130  EKtot   =         4.5711  EPtot      =        -8.5841
 BOND   =         1.2764  ANGLE   =         7.7731  DIHED      =         0.0000
 1-4 NB =         0.0000  1-4 EEL =         0.0000  VDWAALS    =        -0.0001
 EELEC  =       -17.6335  EHBOND  =         0.0000  RESTRAINT  =         0.0000
 DV/DL  =        85.4589
 ------------------------------------------------------------------------------

      R M S  F L U C T U A T I O N S

 NSTEP =  1000000   TIME(PS) =    1000.000  TEMP(K) =   114.23  PRESS =     0.0
 Etot   =         2.1749  EKtot   =         1.7025  EPtot      =         1.3245
 BOND   =         0.9012  ANGLE   =         0.9552  DIHED      =         0.0000
 1-4 NB =         0.0000  1-4 EEL =         0.0000  VDWAALS    =         0.0000
 EELEC  =         0.0023  EHBOND  =         0.0000  RESTRAINT  =         0.0000
 DV/DL  =         0.0276
 ------------------------------------------------------------------------------

      DV/DL, AVERAGES OVER 1000000 STEPS

 NSTEP =  1000000   TIME(PS) =    1000.000  TEMP(K) =   114.23  PRESS =     0.0
 Etot   =         0.0000  EKtot   =         0.0000  EPtot      =        85.4589
 BOND   =        -0.0000  ANGLE   =         0.0000  DIHED      =         0.0000
 1-4 NB =         0.0000  1-4 EEL =         0.0000  VDWAALS    =         0.0003
 EELEC  =        85.4586  EHBOND  =         0.0000  RESTRAINT  =         0.0000
 DV/DL  =        85.4589
 ------------------------------------------------------------------------------
