-------------------------------------------------------
          Amber 20 PMEMD                              2020
          -------------------------------------------------------

  [-O]verwriting output

File Assignments:

 Here is the input file:

 &cntrl
   nstlim=1000000, nscm=1000,
   ntx=1, irest=0, ntpr=1000,
   tempi=300.0, temp0=300.0, ntt=3, gamma_ln=2.0,
   ntb=1, igb=0, cut=10.0,
   dt=0.001, ig=-1,
   ntc=1, ntf=1,
   iwrap=0,
   ntwr=1000, ntwx=50000, ntave=1000,
   ioutfm=1, ntwv=-1,
   ifsc = 1, icfe=1,
   clambda=0.31608,
   timask1=':1',
   timask2=':2',
/

Note: ig = -1. Setting random seed to   388946 based on wallclock time in
      microseconds.

--------------------------------------------------------------------------------
   1.  RESOURCE   USE:
--------------------------------------------------------------------------------

 getting box info from netcdf restart file
 NATOM  =      10 NTYPES =       6 NBONH =       0 MBONA  =       8
 NTHETH =       0 MTHETA =      12 NPHIH =       0 MPHIA  =       0
 NHPARM =       0 NPARM  =       0 NNB   =      22 NRES   =       2
 NBONA  =       8 NTHETA =      12 NPHIA =       0 NUMBND =       1
 NUMANG =       1 NPTRA  =       0 NATYP =       4 NPHB   =       1
 IFBOX  =       2 NMXRS  =       5 IFCAP =       0 NEXTRA =       0
 NCOPY  =       0

     BOX TYPE: TRUNCATED OCTAHEDRON

--------------------------------------------------------------------------------
   2.  CONTROL  DATA  FOR  THE  RUN
--------------------------------------------------------------------------------

default_name

General flags:
     imin    =       0, nmropt  =       0

Nature and format of input:
     ntx     =       1, irest   =       0, ntrx    =       1

Nature and format of output:
     ntxo    =       2, ntpr    =    1000, ntrx    =       1, ntwr    =    1000
     iwrap   =       0, ntwx    =   50000, ntwv    =      -1, ntwe    =       0
     ioutfm  =       1, ntwprt  =       0, idecomp =       0, rbornstat=      0

Potential function:
     ntf     =       1, ntb     =       1, igb     =       0, nsnb    =      25
     ipol    =       0, gbsa    =       0, iesp    =       0
     dielc   =   1.00000, cut     =  10.00000, intdiel =   1.00000

Frozen or restrained atoms:
     ibelly  =       0, ntr     =       0

Molecular dynamics:
     nstlim  =   1000000, nscm    =      1000, nrespa  =         1
     t       =   0.00000, dt      =   0.00100, vlimit  =  -1.00000

Langevin dynamics temperature regulation:
     ig      =  388946
     temp0   = 300.00000, tempi   = 300.00000, gamma_ln=   2.00000

Free energy options:
     icfe    =       1, ifsc    =       1, klambda =       1
     clambda =  0.3161, scalpha =  0.5000, scbeta  = 12.0000
     sceeorder =       2
     dynlmb =  0.0000 logdvdl =       0

Ewald parameters:
     verbose =       0, ew_type =       0, nbflag  =       1, use_pme =       1
     vdwmeth =       1, eedmeth =       1, netfrc  =       1
     Box X =   55.004   Box Y =   55.004   Box Z =   55.004
     Alpha =  109.471   Beta  =  109.471   Gamma =  109.471
     NFFT1 =   56       NFFT2 =   56       NFFT3 =   56
     Cutoff=   10.000   Tol   =0.100E-04
     Ewald Coefficient =  0.27511
     Interpolation order =    4
     TI Mask 1 :1; matches      5 atoms
     TI Mask 2 :2; matches      5 atoms
     TI region 1:       5 atoms
     TI region 2:       5 atoms

--------------------------------------------------------------------------------
   3.  ATOMIC COORDINATES AND VELOCITIES
--------------------------------------------------------------------------------

default_name
 begin time read from input coords =     0.000 ps

 Number of triangulated 3-point waters found:        0
 Number of shake restraints removed in TI region  1 :        0
 Number of shake restraints removed in TI region  2 :        0

     Sum of charges for TI region  1 =  -2.99999999
     Skip neutralizing charges...

     Sum of charges for TI region  2 =   0.00000000
     Skip neutralizing charges...

--------------------------------------------------------------------------------
   4.  RESULTS
 NSTEP =        0   TIME(PS) =       0.000  TEMP(K) =   359.18  PRESS =     0.0
 Etot   =       -46.8370  EKtot   =         5.3532  EPtot      =       -52.1902
 BOND   =         0.0000  ANGLE   =         6.2592  DIHED      =         0.0000
 1-4 NB =         0.0000  1-4 EEL =         0.0000  VDWAALS    =        -0.0002
 EELEC  =       -58.4492  EHBOND  =         0.0000  RESTRAINT  =         0.0000
 DV/DL  =        85.4623
 ------------------------------------------------------------------------------

      A V E R A G E S   O V E R    1000 S T E P S

 NSTEP =     1000   TIME(PS) =       1.000  TEMP(K) =   298.62  PRESS =     0.0
 Etot   =       -45.2368  EKtot   =         4.4507  EPtot      =       -49.6874
 BOND   =         1.3040  ANGLE   =         7.4543  DIHED      =         0.0000
 1-4 NB =         0.0000  1-4 EEL =         0.0000  VDWAALS    =        -0.0002
 EELEC  =       -58.4456  EHBOND  =         0.0000  RESTRAINT  =         0.0000
 DV/DL  =        85.4564
 ------------------------------------------------------------------------------

      R M S  F L U C T U A T I O N S

 NSTEP =     1000   TIME(PS) =       1.000  TEMP(K) =    66.03  PRESS =     0.0
 Etot   =         0.7431  EKtot   =         0.9842  EPtot      =         0.9456
 BOND   =         0.6773  ANGLE   =         0.6978  DIHED      =         0.0000
 1-4 NB =         0.0000  1-4 EEL =         0.0000  VDWAALS    =         0.0000
 EELEC  =         0.0070  EHBOND  =         0.0000  RESTRAINT  =         0.0000
 DV/DL  =         0.0263
 ------------------------------------------------------------------------------

      A V E R A G E S   O V E R    1000 S T E P S

 NSTEP =     1000   TIME(PS) =       1.000  TEMP(K) =   298.39  PRESS =     0.0
 Etot   =       -45.2403  EKtot   =         4.4472  EPtot      =       -49.6874
 BOND   =         1.3040  ANGLE   =         7.4543  DIHED      =         0.0000
 1-4 NB =         0.0000  1-4 EEL =         0.0000  VDWAALS    =        -0.0002
 EELEC  =       -58.4456  EHBOND  =         0.0000  RESTRAINT  =         0.0000
 DV/DL  =        85.4564
 ------------------------------------------------------------------------------

      R M S  F L U C T U A T I O N S

 NSTEP =     1000   TIME(PS) =       1.000  TEMP(K) =    66.04  PRESS =     0.0
 Etot   =         0.7487  EKtot   =         0.9842  EPtot      =         0.9456
 BOND   =         0.6773  ANGLE   =         0.6978  DIHED      =         0.0000
 1-4 NB =         0.0000  1-4 EEL =         0.0000  VDWAALS    =         0.0000
 EELEC  =         0.0070  EHBOND  =         0.0000  RESTRAINT  =         0.0000
 DV/DL  =         0.0263
 ------------------------------------------------------------------------------

      DV/DL, AVERAGES OVER    1000 STEPS

 NSTEP =     1000   TIME(PS) =       1.000  TEMP(K) =    66.04  PRESS =     0.0
 Etot   =         0.0000  EKtot   =         0.0000  EPtot      =        85.4564
 BOND   =        -0.0003  ANGLE   =        -0.0004  DIHED      =         0.0000
 1-4 NB =         0.0000  1-4 EEL =         0.0000  VDWAALS    =         0.0003
 EELEC  =        85.4567  EHBOND  =         0.0000  RESTRAINT  =         0.0000
 DV/DL  =        85.4564
 ------------------------------------------------------------------------------

      A V E R A G E S   O V E R    1000 S T E P S

 NSTEP =     2000   TIME(PS) =       2.000  TEMP(K) =   257.14  PRESS =     0.0
 Etot   =       -46.4267  EKtot   =         3.8324  EPtot      =       -50.2591
 BOND   =         0.6643  ANGLE   =         7.5178  DIHED      =         0.0000
 1-4 NB =         0.0000  1-4 EEL =         0.0000  VDWAALS    =        -0.0002
 EELEC  =       -58.4410  EHBOND  =         0.0000  RESTRAINT  =         0.0000
 DV/DL  =        85.4508
 ------------------------------------------------------------------------------

      R M S  F L U C T U A T I O N S

 NSTEP =     2000   TIME(PS) =       2.000  TEMP(K) =    77.80  PRESS =     0.0
 Etot   =         1.1793  EKtot   =         1.1595  EPtot      =         0.7268
 BOND   =         0.3394  ANGLE   =         0.6175  DIHED      =         0.0000
 1-4 NB =         0.0000  1-4 EEL =         0.0000  VDWAALS    =         0.0000
 EELEC  =         0.0049  EHBOND  =         0.0000  RESTRAINT  =         0.0000
 DV/DL  =         0.0190
 ------------------------------------------------------------------------------

      A V E R A G E S   O V E R    1000 S T E P S

 NSTEP =     2000   TIME(PS) =       2.000  TEMP(K) =   257.15  PRESS =     0.0
 Etot   =       -46.4265  EKtot   =         3.8326  EPtot      =       -50.2591
 BOND   =         0.6643  ANGLE   =         7.5178  DIHED      =         0.0000
 1-4 NB =         0.0000  1-4 EEL =         0.0000  VDWAALS    =        -0.0002
 EELEC  =       -58.4410  EHBOND  =         0.0000  RESTRAINT  =         0.0000
 DV/DL  =        85.4508
 ------------------------------------------------------------------------------

      R M S  F L U C T U A T I O N S

 NSTEP =     2000   TIME(PS) =       2.000  TEMP(K) =    77.87  PRESS =     0.0
 Etot   =         1.1820  EKtot   =         1.1605  EPtot      =         0.7268
 BOND   =         0.3394  ANGLE   =         0.6175  DIHED      =         0.0000
 1-4 NB =         0.0000  1-4 EEL =         0.0000  VDWAALS    =         0.0000
 EELEC  =         0.0049  EHBOND  =         0.0000  RESTRAINT  =         0.0000
 DV/DL  =         0.0190
 ------------------------------------------------------------------------------

      DV/DL, AVERAGES OVER    1000 STEPS

 NSTEP =     2000   TIME(PS) =       2.000  TEMP(K) =    77.87  PRESS =     0.0
 Etot   =         0.0000  EKtot   =         0.0000  EPtot      =        85.4508
 BOND   =        -0.0000  ANGLE   =         0.0005  DIHED      =         0.0000
 1-4 NB =         0.0000  1-4 EEL =         0.0000  VDWAALS    =         0.0003
 EELEC  =        85.4500  EHBOND  =         0.0000  RESTRAINT  =         0.0000
 DV/DL  =        85.4508
 ------------------------------------------------------------------------------

      A V E R A G E S   O V E R    1000 S T E P S

 NSTEP =  1000000   TIME(PS) =    1000.000  TEMP(K) =   362.99  PRESS =     0.0
 Etot   =       -43.4103  EKtot   =         5.4099  EPtot      =       -48.8202
 BOND   =         1.5421  ANGLE   =         8.0892  DIHED      =         0.0000
 1-4 NB =         0.0000  1-4 EEL =         0.0000  VDWAALS    =        -0.0002
 EELEC  =       -58.4513  EHBOND  =         0.0000  RESTRAINT  =         0.0000
 DV/DL  =        85.4647
 ------------------------------------------------------------------------------

      R M S  F L U C T U A T I O N S

 NSTEP =  1000000   TIME(PS) =    1000.000  TEMP(K) =    90.47  PRESS =     0.0
 Etot   =         1.3634  EKtot   =         1.3483  EPtot      =         1.2661
 BOND   =         0.8297  ANGLE   =         0.9906  DIHED      =         0.0000
 1-4 NB =         0.0000  1-4 EEL =         0.0000  VDWAALS    =         0.0000
 EELEC  =         0.0066  EHBOND  =         0.0000  RESTRAINT  =         0.0000
 DV/DL  =         0.0279
 ------------------------------------------------------------------------------

      A V E R A G E S   O V E R    1000 S T E P S

 NSTEP =  1000000   TIME(PS) =    1000.000  TEMP(K) =   362.85  PRESS =     0.0
 Etot   =       -43.4124  EKtot   =         5.4079  EPtot      =       -48.8202
 BOND   =         1.5421  ANGLE   =         8.0892  DIHED      =         0.0000
 1-4 NB =         0.0000  1-4 EEL =         0.0000  VDWAALS    =        -0.0002
 EELEC  =       -58.4513  EHBOND  =         0.0000  RESTRAINT  =         0.0000
 DV/DL  =        85.4647
 ------------------------------------------------------------------------------

      R M S  F L U C T U A T I O N S

 NSTEP =  1000000   TIME(PS) =    1000.000  TEMP(K) =    91.06  PRESS =     0.0
 Etot   =         1.3691  EKtot   =         1.3571  EPtot      =         1.2661
 BOND   =         0.8297  ANGLE   =         0.9906  DIHED      =         0.0000
 1-4 NB =         0.0000  1-4 EEL =         0.0000  VDWAALS    =         0.0000
 EELEC  =         0.0066  EHBOND  =         0.0000  RESTRAINT  =         0.0000
 DV/DL  =         0.0279
 ------------------------------------------------------------------------------

      DV/DL, AVERAGES OVER    1000 STEPS

 NSTEP =  1000000   TIME(PS) =    1000.000  TEMP(K) =    91.06  PRESS =     0.0
 Etot   =         0.0000  EKtot   =         0.0000  EPtot      =        85.4647
 BOND   =        -0.0003  ANGLE   =        -0.0005  DIHED      =         0.0000
 1-4 NB =         0.0000  1-4 EEL =         0.0000  VDWAALS    =         0.0003
 EELEC  =        85.4652  EHBOND  =         0.0000  RESTRAINT  =         0.0000
 DV/DL  =        85.4647
 ------------------------------------------------------------------------------

      A V E R A G E S   O V E R 1000000 S T E P S

 NSTEP =  1000000   TIME(PS) =    1000.000  TEMP(K) =   308.69  PRESS =     0.0
 Etot   =       -44.7767  EKtot   =         4.6007  EPtot      =       -49.3774
 BOND   =         1.2863  ANGLE   =         7.7834  DIHED      =         0.0000
 1-4 NB =         0.0000  1-4 EEL =         0.0000  VDWAALS    =        -0.0002
 EELEC  =       -58.4469  EHBOND  =         0.0000  RESTRAINT  =         0.0000
 DV/DL  =        85.4590
 ------------------------------------------------------------------------------

      R M S  F L U C T U A T I O N S

 NSTEP =  1000000   TIME(PS) =    1000.000  TEMP(K) =   114.54  PRESS =     0.0
 Etot   =         2.1728  EKtot   =         1.7071  EPtot      =         1.3373
 BOND   =         0.9185  ANGLE   =         0.9764  DIHED      =         0.0000
 1-4 NB =         0.0000  1-4 EEL =         0.0000  VDWAALS    =         0.0000
 EELEC  =         0.0075  EHBOND  =         0.0000  RESTRAINT  =         0.0000
 DV/DL  =         0.0278
 ------------------------------------------------------------------------------

      A V E R A G E S   O V E R 1000000 S T E P S

 NSTEP =  1000000   TIME(PS) =    1000.000  TEMP(K) =   308.68  PRESS =     0.0
 Etot   =       -44.7768  EKtot   =         4.6006  EPtot      =       -49.3774
 BOND   =         1.2863  ANGLE   =         7.7834  DIHED      =         0.0000
 1-4 NB =         0.0000  1-4 EEL =         0.0000  VDWAALS    =        -0.0002
 EELEC  =       -58.4469  EHBOND  =         0.0000  RESTRAINT  =         0.0000
 DV/DL  =        85.4590
 ------------------------------------------------------------------------------

      R M S  F L U C T U A T I O N S

 NSTEP =  1000000   TIME(PS) =    1000.000  TEMP(K) =   114.53  PRESS =     0.0
 Etot   =         2.1727  EKtot   =         1.7070  EPtot      =         1.3373
 BOND   =         0.9185  ANGLE   =         0.9764  DIHED      =         0.0000
 1-4 NB =         0.0000  1-4 EEL =         0.0000  VDWAALS    =         0.0000
 EELEC  =         0.0075  EHBOND  =         0.0000  RESTRAINT  =         0.0000
 DV/DL  =         0.0278
 ------------------------------------------------------------------------------

      DV/DL, AVERAGES OVER 1000000 STEPS

 NSTEP =  1000000   TIME(PS) =    1000.000  TEMP(K) =   114.53  PRESS =     0.0
 Etot   =         0.0000  EKtot   =         0.0000  EPtot      =        85.4590
 BOND   =        -0.0000  ANGLE   =         0.0000  DIHED      =         0.0000
 1-4 NB =         0.0000  1-4 EEL =         0.0000  VDWAALS    =         0.0003
 EELEC  =        85.4587  EHBOND  =         0.0000  RESTRAINT  =         0.0000
 DV/DL  =        85.4590
 ------------------------------------------------------------------------------
