-------------------------------------------------------
          Amber 20 PMEMD                              2020
          -------------------------------------------------------

  [-O]verwriting output

File Assignments:

 Here is the input file:

 &cntrl
   nstlim=500000, nscm=1000,
   ntx=5, irest=1, ntpr=1000,
   tempi=300.0, temp0=300.0, ntt=3, gamma_ln=2.0,
   ntp=1, pres0=1.01325, taup=5.0,
   ntb=2, igb=0, cut=10.0,
   dt=0.002, ig=-1,
   ntc=2, ntf=2,
   iwrap=0,
   ntwr=1000, ntwx=50000, ntave=1000,
   ioutfm=1, ntwv=-1,
   ifsc = 0, icfe=1,
   clambda=0.04794,
   timask1=':1',
   timask2=':2', crgmask = ':2',
/

Note: ig = -1. Setting random seed to   384025 based on wallclock time in
      microseconds.

--------------------------------------------------------------------------------
   1.  RESOURCE   USE:
--------------------------------------------------------------------------------

 getting box info from netcdf restart file
 NATOM  =   11419 NTYPES =       4 NBONH =   11409 MBONA  =       8
 NTHETH =       0 MTHETA =      12 NPHIH =       0 MPHIA  =       0
 NHPARM =       0 NPARM  =       0 NNB   =   15234 NRES   =    3805
 NBONA  =       8 NTHETA =      12 NPHIA =       0 NUMBND =       3
 NUMANG =       1 NPTRA  =       0 NATYP =       4 NPHB   =       1
 IFBOX  =       2 NMXRS  =       5 IFCAP =       0 NEXTRA =       0
 NCOPY  =       0

     BOX TYPE: TRUNCATED OCTAHEDRON

--------------------------------------------------------------------------------
   2.  CONTROL  DATA  FOR  THE  RUN
--------------------------------------------------------------------------------

default_name

General flags:
     imin    =       0, nmropt  =       0

Nature and format of input:
     ntx     =       5, irest   =       1, ntrx    =       1

Nature and format of output:
     ntxo    =       2, ntpr    =    1000, ntrx    =       1, ntwr    =    1000
     iwrap   =       0, ntwx    =   50000, ntwv    =      -1, ntwe    =       0
     ioutfm  =       1, ntwprt  =       0, idecomp =       0, rbornstat=      0

Potential function:
     ntf     =       2, ntb     =       2, igb     =       0, nsnb    =      25
     ipol    =       0, gbsa    =       0, iesp    =       0
     dielc   =   1.00000, cut     =  10.00000, intdiel =   1.00000

Frozen or restrained atoms:
     ibelly  =       0, ntr     =       0

Molecular dynamics:
     nstlim  =    500000, nscm    =      1000, nrespa  =         1
     t       =   0.00000, dt      =   0.00200, vlimit  =  -1.00000

Langevin dynamics temperature regulation:
     ig      =  384025
     temp0   = 300.00000, tempi   = 300.00000, gamma_ln=   2.00000

Pressure regulation:
     ntp     =       1
     pres0   =   1.01325, comp    =  44.60000, taup    =   5.00000

SHAKE:
     ntc     =       2, jfastw  =       0
     tol     =   0.00001

Free energy options:
     icfe    =       1, ifsc    =       0, klambda =       1
     clambda =  0.0479, scalpha =  0.5000, scbeta  = 12.0000
     sceeorder =       2
     dynlmb =  0.0000 logdvdl =       0

Ewald parameters:
     verbose =       0, ew_type =       0, nbflag  =       1, use_pme =       1
     vdwmeth =       1, eedmeth =       1, netfrc  =       1
     Box X =   55.004   Box Y =   55.004   Box Z =   55.004
     Alpha =  109.471   Beta  =  109.471   Gamma =  109.471
     NFFT1 =   56       NFFT2 =   56       NFFT3 =   56
     Cutoff=   10.000   Tol   =0.100E-04
     Ewald Coefficient =  0.27511
     Interpolation order =    4
     TI Mask 1 :1; matches      5 atoms
     TI Mask 2 :2; matches      5 atoms
     TI region 1:   11414 atoms
     TI region 2:   11414 atoms
Removing charge of       1.4352 from atom       6
Removing charge of      -1.1088 from atom       7
Removing charge of      -1.1088 from atom       8
Removing charge of      -1.1088 from atom       9
Removing charge of      -1.1088 from atom      10
Total charge of  -2.99999999 removed from       5 atoms
     Checking for mismatched coordinates.

--------------------------------------------------------------------------------
   3.  ATOMIC COORDINATES AND VELOCITIES
--------------------------------------------------------------------------------

default_name
 begin time read from input coords =   200.000 ps

 Number of triangulated 3-point waters found:     3803

     Sum of charges for TI region  1 =  -2.99999999
     Skip neutralizing charges...

     Sum of charges for TI region  2 =   0.00000000
     Skip neutralizing charges...

--------------------------------------------------------------------------------
   4.  RESULTS
 NSTEP =     1000   TIME(PS) =     202.000  TEMP(K) =   301.42  PRESS =  -617.4
 Etot   =    -29518.1750  EKtot   =      6838.1878  EPtot      =    -36356.3628
 BOND   =         1.7692  ANGLE   =         7.1478  DIHED      =         0.0000
 1-4 NB =         0.0000  1-4 EEL =         0.0000  VDWAALS    =      5353.4000
 EELEC  =    -41718.6798  EHBOND  =         0.0000  RESTRAINT  =         0.0000
 EKCMT  =      3507.2998  VIRIAL  =      5190.9110  VOLUME     =    126293.3876
                                                    Density    =         0.9021
 DV/DL  =      1128.5212
 ------------------------------------------------------------------------------

      A V E R A G E S   O V E R    1000 S T E P S

 NSTEP =     1000   TIME(PS) =     202.000  TEMP(K) =   299.85  PRESS =  -797.0
 Etot   =    -29419.9355  EKtot   =      6802.7154  EPtot      =    -36222.6509
 BOND   =         2.4365  ANGLE   =         7.9981  DIHED      =         0.0000
 1-4 NB =         0.0000  1-4 EEL =         0.0000  VDWAALS    =      5250.2978
 EELEC  =    -41483.3832  EHBOND  =         0.0000  RESTRAINT  =         0.0000
 EKCMT  =      3423.5800  VIRIAL  =      5612.5037  VOLUME     =    127110.1685
                                                    Density    =         0.8963
 DV/DL  =      1142.1194
 ------------------------------------------------------------------------------

      R M S  F L U C T U A T I O N S

 NSTEP =     1000   TIME(PS) =     202.000  TEMP(K) =     2.22  PRESS =   193.7
 Etot   =        93.4650  EKtot   =        50.4251  EPtot      =        84.0874
 BOND   =         1.6197  ANGLE   =         0.9958  DIHED      =         0.0000
 1-4 NB =         0.0000  1-4 EEL =         0.0000  VDWAALS    =        89.0043
 EELEC  =       116.5056  EHBOND  =         0.0000  RESTRAINT  =         0.0000
 EKCMT  =        31.9998  VIRIAL  =       540.8095  VOLUME     =       516.6503
                                                    Density    =         0.0036
 DV/DL  =        16.7917
 ------------------------------------------------------------------------------

      A V E R A G E S   O V E R    1000 S T E P S

 NSTEP =     1000   TIME(PS) =     202.000  TEMP(K) =   299.85  PRESS =  -797.0
 Etot   =    -29419.9355  EKtot   =      6802.7154  EPtot      =    -36222.6509
 BOND   =         2.4365  ANGLE   =         7.9981  DIHED      =         0.0000
 1-4 NB =         0.0000  1-4 EEL =         0.0000  VDWAALS    =      5250.2978
 EELEC  =    -41483.3832  EHBOND  =         0.0000  RESTRAINT  =         0.0000
 EKCMT  =      3423.5800  VIRIAL  =      5612.5037  VOLUME     =    127110.1685
                                                    Density    =         0.8963
 DV/DL  =      1142.1194
 ------------------------------------------------------------------------------

      R M S  F L U C T U A T I O N S

 NSTEP =     1000   TIME(PS) =     202.000  TEMP(K) =     2.22  PRESS =   193.7
 Etot   =        93.4650  EKtot   =        50.4251  EPtot      =        84.0874
 BOND   =         1.6197  ANGLE   =         0.9958  DIHED      =         0.0000
 1-4 NB =         0.0000  1-4 EEL =         0.0000  VDWAALS    =        89.0043
 EELEC  =       116.5056  EHBOND  =         0.0000  RESTRAINT  =         0.0000
 EKCMT  =        31.9998  VIRIAL  =       540.8095  VOLUME     =       516.6503
                                                    Density    =         0.0036
 DV/DL  =        16.7917
 ------------------------------------------------------------------------------

      DV/DL, AVERAGES OVER    1000 STEPS

 NSTEP =     1000   TIME(PS) =     202.000  TEMP(K) =     2.22  PRESS =     0.0
 Etot   =         0.0000  EKtot   =         0.0000  EPtot      =      1142.1194
 BOND   =         0.0000  ANGLE   =         0.0000  DIHED      =         0.0000
 1-4 NB =         0.0000  1-4 EEL =         0.0000  VDWAALS    =         0.0000
 EELEC  =      1142.1194  EHBOND  =         0.0000  RESTRAINT  =         0.0000
 EKCMT  =         0.0000  VIRIAL  =         0.0000  VOLUME     =         0.0000
                                                    Density    =         0.0000
 DV/DL  =      1142.1194
 ------------------------------------------------------------------------------

      A V E R A G E S   O V E R    1000 S T E P S

 NSTEP =     2000   TIME(PS) =     204.000  TEMP(K) =   298.57  PRESS =  -690.7
 Etot   =    -29671.1741  EKtot   =      6773.6363  EPtot      =    -36444.8105
 BOND   =         2.9236  ANGLE   =         7.9049  DIHED      =         0.0000
 1-4 NB =         0.0000  1-4 EEL =         0.0000  VDWAALS    =      5338.4921
 EELEC  =    -41794.1311  EHBOND  =         0.0000  RESTRAINT  =         0.0000
 EKCMT  =      3392.5934  VIRIAL  =      5264.3430  VOLUME     =    125457.2580
                                                    Density    =         0.9081
 DV/DL  =      1133.7766
 ------------------------------------------------------------------------------

      R M S  F L U C T U A T I O N S

 NSTEP =     2000   TIME(PS) =     204.000  TEMP(K) =     2.28  PRESS =   163.6
 Etot   =        77.7384  EKtot   =        51.6832  EPtot      =        90.7170
 BOND   =         1.7649  ANGLE   =         0.9856  DIHED      =         0.0000
 1-4 NB =         0.0000  1-4 EEL =         0.0000  VDWAALS    =        91.1605
 EELEC  =       157.8511  EHBOND  =         0.0000  RESTRAINT  =         0.0000
 EKCMT  =        47.8404  VIRIAL  =       465.9038  VOLUME     =       459.8327
                                                    Density    =         0.0033
 DV/DL  =        20.4496
 ------------------------------------------------------------------------------

      A V E R A G E S   O V E R    1000 S T E P S

 NSTEP =     2000   TIME(PS) =     204.000  TEMP(K) =   298.57  PRESS =  -690.7
 Etot   =    -29671.1741  EKtot   =      6773.6363  EPtot      =    -36444.8105
 BOND   =         2.9236  ANGLE   =         7.9049  DIHED      =         0.0000
 1-4 NB =         0.0000  1-4 EEL =         0.0000  VDWAALS    =      5338.4921
 EELEC  =    -41794.1311  EHBOND  =         0.0000  RESTRAINT  =         0.0000
 EKCMT  =      3392.5934  VIRIAL  =      5264.3430  VOLUME     =    125457.2580
                                                    Density    =         0.9081
 DV/DL  =      1133.7766
 ------------------------------------------------------------------------------

      R M S  F L U C T U A T I O N S

 NSTEP =     2000   TIME(PS) =     204.000  TEMP(K) =     2.28  PRESS =   163.6
 Etot   =        77.7384  EKtot   =        51.6832  EPtot      =        90.7170
 BOND   =         1.7649  ANGLE   =         0.9856  DIHED      =         0.0000
 1-4 NB =         0.0000  1-4 EEL =         0.0000  VDWAALS    =        91.1605
 EELEC  =       157.8511  EHBOND  =         0.0000  RESTRAINT  =         0.0000
 EKCMT  =        47.8404  VIRIAL  =       465.9038  VOLUME     =       459.8327
                                                    Density    =         0.0033
 DV/DL  =        20.4496
 ------------------------------------------------------------------------------

      DV/DL, AVERAGES OVER    1000 STEPS

 NSTEP =     2000   TIME(PS) =     204.000  TEMP(K) =     2.28  PRESS =     0.0
 Etot   =         0.0000  EKtot   =         0.0000  EPtot      =      1133.7766
 BOND   =         0.0000  ANGLE   =         0.0000  DIHED      =         0.0000
 1-4 NB =         0.0000  1-4 EEL =         0.0000  VDWAALS    =         0.0000
 EELEC  =      1133.7766  EHBOND  =         0.0000  RESTRAINT  =         0.0000
 EKCMT  =         0.0000  VIRIAL  =         0.0000  VOLUME     =         0.0000
                                                    Density    =         0.0000
 DV/DL  =      1133.7766
 ------------------------------------------------------------------------------

      A V E R A G E S   O V E R    1000 S T E P S

 NSTEP =   500000   TIME(PS) =    1200.000  TEMP(K) =   302.25  PRESS =    71.3
 Etot   =    -29931.1427  EKtot   =      6856.9902  EPtot      =    -36788.1330
 BOND   =         2.6820  ANGLE   =         8.2429  DIHED      =         0.0000
 1-4 NB =         0.0000  1-4 EEL =         0.0000  VDWAALS    =      5444.2457
 EELEC  =    -42243.3036  EHBOND  =         0.0000  RESTRAINT  =         0.0000
 EKCMT  =      3449.4835  VIRIAL  =      3271.4011  VOLUME     =    115635.3429
                                                    Density    =         0.9853
 DV/DL  =      1149.8672
 ------------------------------------------------------------------------------

      R M S  F L U C T U A T I O N S

 NSTEP =   500000   TIME(PS) =    1200.000  TEMP(K) =     2.43  PRESS =   195.9
 Etot   =        47.4085  EKtot   =        55.0173  EPtot      =        55.0817
 BOND   =         1.5812  ANGLE   =         1.3021  DIHED      =         0.0000
 1-4 NB =         0.0000  1-4 EEL =         0.0000  VDWAALS    =       103.1762
 EELEC  =       128.5561  EHBOND  =         0.0000  RESTRAINT  =         0.0000
 EKCMT  =        38.6849  VIRIAL  =       488.8422  VOLUME     =        56.9539
                                                    Density    =         0.0005
 DV/DL  =        24.9045
 ------------------------------------------------------------------------------

      A V E R A G E S   O V E R    1000 S T E P S

 NSTEP =   500000   TIME(PS) =    1200.000  TEMP(K) =   302.25  PRESS =    71.3
 Etot   =    -29931.1427  EKtot   =      6856.9902  EPtot      =    -36788.1330
 BOND   =         2.6820  ANGLE   =         8.2429  DIHED      =         0.0000
 1-4 NB =         0.0000  1-4 EEL =         0.0000  VDWAALS    =      5444.2457
 EELEC  =    -42243.3036  EHBOND  =         0.0000  RESTRAINT  =         0.0000
 EKCMT  =      3449.4835  VIRIAL  =      3271.4011  VOLUME     =    115635.3429
                                                    Density    =         0.9853
 DV/DL  =      1149.8672
 ------------------------------------------------------------------------------

      R M S  F L U C T U A T I O N S

 NSTEP =   500000   TIME(PS) =    1200.000  TEMP(K) =     2.43  PRESS =   195.9
 Etot   =        47.4085  EKtot   =        55.0173  EPtot      =        55.0817
 BOND   =         1.5812  ANGLE   =         1.3021  DIHED      =         0.0000
 1-4 NB =         0.0000  1-4 EEL =         0.0000  VDWAALS    =       103.1762
 EELEC  =       128.5561  EHBOND  =         0.0000  RESTRAINT  =         0.0000
 EKCMT  =        38.6849  VIRIAL  =       488.8422  VOLUME     =        56.9539
                                                    Density    =         0.0005
 DV/DL  =        24.9045
 ------------------------------------------------------------------------------

      DV/DL, AVERAGES OVER    1000 STEPS

 NSTEP =   500000   TIME(PS) =    1200.000  TEMP(K) =     2.43  PRESS =     0.0
 Etot   =         0.0000  EKtot   =         0.0000  EPtot      =      1149.8672
 BOND   =         0.0000  ANGLE   =         0.0000  DIHED      =         0.0000
 1-4 NB =         0.0000  1-4 EEL =         0.0000  VDWAALS    =         0.0000
 EELEC  =      1149.8672  EHBOND  =         0.0000  RESTRAINT  =         0.0000
 EKCMT  =         0.0000  VIRIAL  =         0.0000  VOLUME     =         0.0000
                                                    Density    =         0.0000
 DV/DL  =      1149.8672
 ------------------------------------------------------------------------------

      A V E R A G E S   O V E R  500000 S T E P S

 NSTEP =   500000   TIME(PS) =    1200.000  TEMP(K) =   299.93  PRESS =   -10.4
 Etot   =    -30114.6403  EKtot   =      6804.4909  EPtot      =    -36919.1312
 BOND   =         2.5662  ANGLE   =         7.9974  DIHED      =         0.0000
 1-4 NB =         0.0000  1-4 EEL =         0.0000  VDWAALS    =      5468.6437
 EELEC  =    -42398.3386  EHBOND  =         0.0000  RESTRAINT  =         0.0000
 EKCMT  =      3412.6277  VIRIAL  =      3440.0273  VOLUME     =    115646.5763
                                                    Density    =         0.9852
 DV/DL  =      1136.6092
 ------------------------------------------------------------------------------

      R M S  F L U C T U A T I O N S

 NSTEP =   500000   TIME(PS) =    1200.000  TEMP(K) =     2.78  PRESS =   192.0
 Etot   =       118.9456  EKtot   =        63.0911  EPtot      =       102.6122
 BOND   =         1.5465  ANGLE   =         1.1104  DIHED      =         0.0000
 1-4 NB =         0.0000  1-4 EEL =         0.0000  VDWAALS    =        93.2553
 EELEC  =       157.0749  EHBOND  =         0.0000  RESTRAINT  =         0.0000
 EKCMT  =        44.7880  VIRIAL  =       482.6734  VOLUME     =       977.6039
                                                    Density    =         0.0078
 DV/DL  =        24.2774
 ------------------------------------------------------------------------------

      A V E R A G E S   O V E R  500000 S T E P S

 NSTEP =   500000   TIME(PS) =    1200.000  TEMP(K) =   299.93  PRESS =   -10.4
 Etot   =    -30114.6403  EKtot   =      6804.4909  EPtot      =    -36919.1312
 BOND   =         2.5662  ANGLE   =         7.9974  DIHED      =         0.0000
 1-4 NB =         0.0000  1-4 EEL =         0.0000  VDWAALS    =      5468.6437
 EELEC  =    -42398.3386  EHBOND  =         0.0000  RESTRAINT  =         0.0000
 EKCMT  =      3412.6277  VIRIAL  =      3440.0273  VOLUME     =    115646.5763
                                                    Density    =         0.9852
 DV/DL  =      1136.6092
 ------------------------------------------------------------------------------

      R M S  F L U C T U A T I O N S

 NSTEP =   500000   TIME(PS) =    1200.000  TEMP(K) =     2.78  PRESS =   192.0
 Etot   =       118.9456  EKtot   =        63.0911  EPtot      =       102.6122
 BOND   =         1.5465  ANGLE   =         1.1104  DIHED      =         0.0000
 1-4 NB =         0.0000  1-4 EEL =         0.0000  VDWAALS    =        93.2553
 EELEC  =       157.0749  EHBOND  =         0.0000  RESTRAINT  =         0.0000
 EKCMT  =        44.7880  VIRIAL  =       482.6734  VOLUME     =       977.6039
                                                    Density    =         0.0078
 DV/DL  =        24.2774
 ------------------------------------------------------------------------------

      DV/DL, AVERAGES OVER  500000 STEPS

 NSTEP =   500000   TIME(PS) =    1200.000  TEMP(K) =     2.78  PRESS =     0.0
 Etot   =         0.0000  EKtot   =         0.0000  EPtot      =      1136.6092
 BOND   =         0.0000  ANGLE   =         0.0000  DIHED      =         0.0000
 1-4 NB =         0.0000  1-4 EEL =         0.0000  VDWAALS    =         0.0000
 EELEC  =      1136.6092  EHBOND  =         0.0000  RESTRAINT  =         0.0000
 EKCMT  =         0.0000  VIRIAL  =         0.0000  VOLUME     =         0.0000
                                                    Density    =         0.0000
 DV/DL  =      1136.6092
 ------------------------------------------------------------------------------
