-------------------------------------------------------
          Amber 20 PMEMD                              2020
          -------------------------------------------------------

  [-O]verwriting output

File Assignments:

 Here is the input file:

 &cntrl
   nstlim=500000, nscm=1000,
   ntx=5, irest=1, ntpr=1000,
   tempi=300.0, temp0=300.0, ntt=3, gamma_ln=2.0,
   ntp=1, pres0=1.01325, taup=5.0,
   ntb=2, igb=0, cut=10.0,
   dt=0.002, ig=-1,
   ntc=2, ntf=2,
   iwrap=0,
   ntwr=1000, ntwx=50000, ntave=1000,
   ioutfm=1, ntwv=-1,
   ifsc = 0, icfe=1,
   clambda=0.04794,
   timask1=':1',
   timask2=':2',
/

Note: ig = -1. Setting random seed to   587577 based on wallclock time in
      microseconds.

--------------------------------------------------------------------------------
   1.  RESOURCE   USE:
--------------------------------------------------------------------------------

 getting box info from netcdf restart file
 NATOM  =   11419 NTYPES =       6 NBONH =   11409 MBONA  =       8
 NTHETH =       0 MTHETA =      12 NPHIH =       0 MPHIA  =       0
 NHPARM =       0 NPARM  =       0 NNB   =   15234 NRES   =    3805
 NBONA  =       8 NTHETA =      12 NPHIA =       0 NUMBND =       3
 NUMANG =       1 NPTRA  =       0 NATYP =       4 NPHB   =       1
 IFBOX  =       2 NMXRS  =       5 IFCAP =       0 NEXTRA =       0
 NCOPY  =       0

     BOX TYPE: TRUNCATED OCTAHEDRON

--------------------------------------------------------------------------------
   2.  CONTROL  DATA  FOR  THE  RUN
--------------------------------------------------------------------------------

default_name

General flags:
     imin    =       0, nmropt  =       0

Nature and format of input:
     ntx     =       5, irest   =       1, ntrx    =       1

Nature and format of output:
     ntxo    =       2, ntpr    =    1000, ntrx    =       1, ntwr    =    1000
     iwrap   =       0, ntwx    =   50000, ntwv    =      -1, ntwe    =       0
     ioutfm  =       1, ntwprt  =       0, idecomp =       0, rbornstat=      0

Potential function:
     ntf     =       2, ntb     =       2, igb     =       0, nsnb    =      25
     ipol    =       0, gbsa    =       0, iesp    =       0
     dielc   =   1.00000, cut     =  10.00000, intdiel =   1.00000

Frozen or restrained atoms:
     ibelly  =       0, ntr     =       0

Molecular dynamics:
     nstlim  =    500000, nscm    =      1000, nrespa  =         1
     t       =   0.00000, dt      =   0.00200, vlimit  =  -1.00000

Langevin dynamics temperature regulation:
     ig      =  587577
     temp0   = 300.00000, tempi   = 300.00000, gamma_ln=   2.00000

Pressure regulation:
     ntp     =       1
     pres0   =   1.01325, comp    =  44.60000, taup    =   5.00000

SHAKE:
     ntc     =       2, jfastw  =       0
     tol     =   0.00001

Free energy options:
     icfe    =       1, ifsc    =       0, klambda =       1
     clambda =  0.0479, scalpha =  0.5000, scbeta  = 12.0000
     sceeorder =       2
     dynlmb =  0.0000 logdvdl =       0

Ewald parameters:
     verbose =       0, ew_type =       0, nbflag  =       1, use_pme =       1
     vdwmeth =       1, eedmeth =       1, netfrc  =       1
     Box X =   55.004   Box Y =   55.004   Box Z =   55.004
     Alpha =  109.471   Beta  =  109.471   Gamma =  109.471
     NFFT1 =   56       NFFT2 =   56       NFFT3 =   56
     Cutoff=   10.000   Tol   =0.100E-04
     Ewald Coefficient =  0.27511
     Interpolation order =    4
     TI Mask 1 :1; matches      5 atoms
     TI Mask 2 :2; matches      5 atoms
     TI region 1:   11414 atoms
     TI region 2:   11414 atoms
     Checking for mismatched coordinates.

--------------------------------------------------------------------------------
   3.  ATOMIC COORDINATES AND VELOCITIES
--------------------------------------------------------------------------------

default_name
 begin time read from input coords =   200.000 ps

 Number of triangulated 3-point waters found:     3803

     Sum of charges for TI region  1 =  -2.99999999
     Skip neutralizing charges...

     Sum of charges for TI region  2 =   0.00000000
     Skip neutralizing charges...

--------------------------------------------------------------------------------
   4.  RESULTS
 NSTEP =     1000   TIME(PS) =     202.000  TEMP(K) =   303.17  PRESS =  -830.4
 Etot   =    -29555.9291  EKtot   =      6877.9464  EPtot      =    -36433.8755
 BOND   =         5.5798  ANGLE   =         6.8639  DIHED      =         0.0000
 1-4 NB =         0.0000  1-4 EEL =         0.0000  VDWAALS    =      5244.3087
 EELEC  =    -41690.6279  EHBOND  =         0.0000  RESTRAINT  =         0.0000
 EKCMT  =      3448.9625  VIRIAL  =      5715.3263  VOLUME     =    126399.5534
                                                    Density    =         0.9014
 DV/DL  =      1101.4245
 ------------------------------------------------------------------------------

      A V E R A G E S   O V E R    1000 S T E P S

 NSTEP =     1000   TIME(PS) =     202.000  TEMP(K) =   299.23  PRESS =  -750.1
 Etot   =    -29589.9462  EKtot   =      6788.6295  EPtot      =    -36378.5757
 BOND   =         2.8151  ANGLE   =         8.2458  DIHED      =         0.0000
 1-4 NB =         0.0000  1-4 EEL =         0.0000  VDWAALS    =      5319.1151
 EELEC  =    -41708.7517  EHBOND  =         0.0000  RESTRAINT  =         0.0000
 EKCMT  =      3392.0650  VIRIAL  =      5453.0802  VOLUME     =    127190.2952
                                                    Density    =         0.8958
 DV/DL  =      1098.8250
 ------------------------------------------------------------------------------

      R M S  F L U C T U A T I O N S

 NSTEP =     1000   TIME(PS) =     202.000  TEMP(K) =     2.34  PRESS =   167.6
 Etot   =       117.5460  EKtot   =        53.1141  EPtot      =       112.6221
 BOND   =         1.6608  ANGLE   =         1.2652  DIHED      =         0.0000
 1-4 NB =         0.0000  1-4 EEL =         0.0000  VDWAALS    =        91.8114
 EELEC  =       178.3426  EHBOND  =         0.0000  RESTRAINT  =         0.0000
 EKCMT  =        43.8520  VIRIAL  =       467.9800  VOLUME     =       478.1184
                                                    Density    =         0.0034
 DV/DL  =        31.2205
 ------------------------------------------------------------------------------

      A V E R A G E S   O V E R    1000 S T E P S

 NSTEP =     1000   TIME(PS) =     202.000  TEMP(K) =   299.23  PRESS =  -750.1
 Etot   =    -29589.9462  EKtot   =      6788.6295  EPtot      =    -36378.5757
 BOND   =         2.8151  ANGLE   =         8.2458  DIHED      =         0.0000
 1-4 NB =         0.0000  1-4 EEL =         0.0000  VDWAALS    =      5319.1151
 EELEC  =    -41708.7517  EHBOND  =         0.0000  RESTRAINT  =         0.0000
 EKCMT  =      3392.0650  VIRIAL  =      5453.0802  VOLUME     =    127190.2952
                                                    Density    =         0.8958
 DV/DL  =      1098.8250
 ------------------------------------------------------------------------------

      R M S  F L U C T U A T I O N S

 NSTEP =     1000   TIME(PS) =     202.000  TEMP(K) =     2.34  PRESS =   167.6
 Etot   =       117.5460  EKtot   =        53.1141  EPtot      =       112.6221
 BOND   =         1.6608  ANGLE   =         1.2652  DIHED      =         0.0000
 1-4 NB =         0.0000  1-4 EEL =         0.0000  VDWAALS    =        91.8114
 EELEC  =       178.3426  EHBOND  =         0.0000  RESTRAINT  =         0.0000
 EKCMT  =        43.8520  VIRIAL  =       467.9800  VOLUME     =       478.1184
                                                    Density    =         0.0034
 DV/DL  =        31.2205
 ------------------------------------------------------------------------------

      DV/DL, AVERAGES OVER    1000 STEPS

 NSTEP =     1000   TIME(PS) =     202.000  TEMP(K) =     2.34  PRESS =     0.0
 Etot   =         0.0000  EKtot   =         0.0000  EPtot      =      1098.8250
 BOND   =         0.0000  ANGLE   =         0.0000  DIHED      =         0.0000
 1-4 NB =         0.0000  1-4 EEL =         0.0000  VDWAALS    =       -41.9133
 EELEC  =      1140.7384  EHBOND  =         0.0000  RESTRAINT  =         0.0000
 EKCMT  =         0.0000  VIRIAL  =         0.0000  VOLUME     =         0.0000
                                                    Density    =         0.0000
 DV/DL  =      1098.8250
 ------------------------------------------------------------------------------

      A V E R A G E S   O V E R    1000 S T E P S

 NSTEP =     2000   TIME(PS) =     204.000  TEMP(K) =   301.77  PRESS =  -622.4
 Etot   =    -29477.2281  EKtot   =      6846.1619  EPtot      =    -36323.3900
 BOND   =         2.5728  ANGLE   =         7.8611  DIHED      =         0.0000
 1-4 NB =         0.0000  1-4 EEL =         0.0000  VDWAALS    =      5319.4301
 EELEC  =    -41653.2540  EHBOND  =         0.0000  RESTRAINT  =         0.0000
 EKCMT  =      3429.0586  VIRIAL  =      5118.2958  VOLUME     =    125691.6978
                                                    Density    =         0.9064
 DV/DL  =      1092.6411
 ------------------------------------------------------------------------------

      R M S  F L U C T U A T I O N S

 NSTEP =     2000   TIME(PS) =     204.000  TEMP(K) =     2.27  PRESS =   145.9
 Etot   =        78.7028  EKtot   =        51.5020  EPtot      =        79.5471
 BOND   =         1.6144  ANGLE   =         0.9928  DIHED      =         0.0000
 1-4 NB =         0.0000  1-4 EEL =         0.0000  VDWAALS    =        77.1101
 EELEC  =       120.0881  EHBOND  =         0.0000  RESTRAINT  =         0.0000
 EKCMT  =        39.4558  VIRIAL  =       395.4268  VOLUME     =       400.0477
                                                    Density    =         0.0029
 DV/DL  =        21.1616
 ------------------------------------------------------------------------------

      A V E R A G E S   O V E R    1000 S T E P S

 NSTEP =     2000   TIME(PS) =     204.000  TEMP(K) =   301.77  PRESS =  -622.4
 Etot   =    -29477.2281  EKtot   =      6846.1619  EPtot      =    -36323.3900
 BOND   =         2.5728  ANGLE   =         7.8611  DIHED      =         0.0000
 1-4 NB =         0.0000  1-4 EEL =         0.0000  VDWAALS    =      5319.4301
 EELEC  =    -41653.2540  EHBOND  =         0.0000  RESTRAINT  =         0.0000
 EKCMT  =      3429.0586  VIRIAL  =      5118.2958  VOLUME     =    125691.6978
                                                    Density    =         0.9064
 DV/DL  =      1092.6411
 ------------------------------------------------------------------------------

      R M S  F L U C T U A T I O N S

 NSTEP =     2000   TIME(PS) =     204.000  TEMP(K) =     2.27  PRESS =   145.9
 Etot   =        78.7028  EKtot   =        51.5020  EPtot      =        79.5471
 BOND   =         1.6144  ANGLE   =         0.9928  DIHED      =         0.0000
 1-4 NB =         0.0000  1-4 EEL =         0.0000  VDWAALS    =        77.1101
 EELEC  =       120.0881  EHBOND  =         0.0000  RESTRAINT  =         0.0000
 EKCMT  =        39.4558  VIRIAL  =       395.4268  VOLUME     =       400.0477
                                                    Density    =         0.0029
 DV/DL  =        21.1616
 ------------------------------------------------------------------------------

      DV/DL, AVERAGES OVER    1000 STEPS

 NSTEP =     2000   TIME(PS) =     204.000  TEMP(K) =     2.27  PRESS =     0.0
 Etot   =         0.0000  EKtot   =         0.0000  EPtot      =      1092.6411
 BOND   =         0.0000  ANGLE   =         0.0000  DIHED      =         0.0000
 1-4 NB =         0.0000  1-4 EEL =         0.0000  VDWAALS    =       -41.5579
 EELEC  =      1134.1990  EHBOND  =         0.0000  RESTRAINT  =         0.0000
 EKCMT  =         0.0000  VIRIAL  =         0.0000  VOLUME     =         0.0000
                                                    Density    =         0.0000
 DV/DL  =      1092.6411
 ------------------------------------------------------------------------------

      A V E R A G E S   O V E R    1000 S T E P S

 NSTEP =   500000   TIME(PS) =    1200.000  TEMP(K) =   301.75  PRESS =    98.0
 Etot   =    -30033.1204  EKtot   =      6845.6563  EPtot      =    -36878.7766
 BOND   =         2.5709  ANGLE   =         8.2178  DIHED      =         0.0000
 1-4 NB =         0.0000  1-4 EEL =         0.0000  VDWAALS    =      5508.0173
 EELEC  =    -42397.5827  EHBOND  =         0.0000  RESTRAINT  =         0.0000
 EKCMT  =      3424.3820  VIRIAL  =      3179.5554  VOLUME     =    115785.2444
                                                    Density    =         0.9840
 DV/DL  =      1090.4058
 ------------------------------------------------------------------------------

      R M S  F L U C T U A T I O N S

 NSTEP =   500000   TIME(PS) =    1200.000  TEMP(K) =     2.51  PRESS =   165.5
 Etot   =        50.5036  EKtot   =        57.0515  EPtot      =        50.9165
 BOND   =         1.4572  ANGLE   =         1.1535  DIHED      =         0.0000
 1-4 NB =         0.0000  1-4 EEL =         0.0000  VDWAALS    =        75.9923
 EELEC  =        86.7636  EHBOND  =         0.0000  RESTRAINT  =         0.0000
 EKCMT  =        41.9366  VIRIAL  =       414.3844  VOLUME     =        64.1297
                                                    Density    =         0.0005
 DV/DL  =        22.2203
 ------------------------------------------------------------------------------

      A V E R A G E S   O V E R    1000 S T E P S

 NSTEP =   500000   TIME(PS) =    1200.000  TEMP(K) =   301.75  PRESS =    98.0
 Etot   =    -30033.1204  EKtot   =      6845.6563  EPtot      =    -36878.7766
 BOND   =         2.5709  ANGLE   =         8.2178  DIHED      =         0.0000
 1-4 NB =         0.0000  1-4 EEL =         0.0000  VDWAALS    =      5508.0173
 EELEC  =    -42397.5827  EHBOND  =         0.0000  RESTRAINT  =         0.0000
 EKCMT  =      3424.3820  VIRIAL  =      3179.5554  VOLUME     =    115785.2444
                                                    Density    =         0.9840
 DV/DL  =      1090.4058
 ------------------------------------------------------------------------------

      R M S  F L U C T U A T I O N S

 NSTEP =   500000   TIME(PS) =    1200.000  TEMP(K) =     2.51  PRESS =   165.5
 Etot   =        50.5036  EKtot   =        57.0515  EPtot      =        50.9165
 BOND   =         1.4572  ANGLE   =         1.1535  DIHED      =         0.0000
 1-4 NB =         0.0000  1-4 EEL =         0.0000  VDWAALS    =        75.9923
 EELEC  =        86.7636  EHBOND  =         0.0000  RESTRAINT  =         0.0000
 EKCMT  =        41.9366  VIRIAL  =       414.3844  VOLUME     =        64.1297
                                                    Density    =         0.0005
 DV/DL  =        22.2203
 ------------------------------------------------------------------------------

      DV/DL, AVERAGES OVER    1000 STEPS

 NSTEP =   500000   TIME(PS) =    1200.000  TEMP(K) =     2.51  PRESS =     0.0
 Etot   =         0.0000  EKtot   =         0.0000  EPtot      =      1090.4058
 BOND   =         0.0000  ANGLE   =         0.0000  DIHED      =         0.0000
 1-4 NB =         0.0000  1-4 EEL =         0.0000  VDWAALS    =       -42.1988
 EELEC  =      1132.6046  EHBOND  =         0.0000  RESTRAINT  =         0.0000
 EKCMT  =         0.0000  VIRIAL  =         0.0000  VOLUME     =         0.0000
                                                    Density    =         0.0000
 DV/DL  =      1090.4058
 ------------------------------------------------------------------------------

      A V E R A G E S   O V E R  500000 S T E P S

 NSTEP =   500000   TIME(PS) =    1200.000  TEMP(K) =   299.94  PRESS =   -10.3
 Etot   =    -30109.3423  EKtot   =      6804.5980  EPtot      =    -36913.9403
 BOND   =         2.7511  ANGLE   =         8.0548  DIHED      =         0.0000
 1-4 NB =         0.0000  1-4 EEL =         0.0000  VDWAALS    =      5470.7625
 EELEC  =    -42395.5088  EHBOND  =         0.0000  RESTRAINT  =         0.0000
 EKCMT  =      3411.8951  VIRIAL  =      3439.0732  VOLUME     =    115713.1044
                                                    Density    =         0.9847
 DV/DL  =      1099.4291
 ------------------------------------------------------------------------------

      R M S  F L U C T U A T I O N S

 NSTEP =   500000   TIME(PS) =    1200.000  TEMP(K) =     2.80  PRESS =   191.8
 Etot   =       117.8818  EKtot   =        63.5137  EPtot      =       100.4378
 BOND   =         1.6232  ANGLE   =         1.1373  DIHED      =         0.0000
 1-4 NB =         0.0000  1-4 EEL =         0.0000  VDWAALS    =        93.3854
 EELEC  =       155.3512  EHBOND  =         0.0000  RESTRAINT  =         0.0000
 EKCMT  =        45.3753  VIRIAL  =       482.0407  VOLUME     =       991.9725
                                                    Density    =         0.0079
 DV/DL  =        22.4898
 ------------------------------------------------------------------------------

      A V E R A G E S   O V E R  500000 S T E P S

 NSTEP =   500000   TIME(PS) =    1200.000  TEMP(K) =   299.94  PRESS =   -10.3
 Etot   =    -30109.3423  EKtot   =      6804.5980  EPtot      =    -36913.9403
 BOND   =         2.7511  ANGLE   =         8.0548  DIHED      =         0.0000
 1-4 NB =         0.0000  1-4 EEL =         0.0000  VDWAALS    =      5470.7625
 EELEC  =    -42395.5088  EHBOND  =         0.0000  RESTRAINT  =         0.0000
 EKCMT  =      3411.8951  VIRIAL  =      3439.0732  VOLUME     =    115713.1044
                                                    Density    =         0.9847
 DV/DL  =      1099.4291
 ------------------------------------------------------------------------------

      R M S  F L U C T U A T I O N S

 NSTEP =   500000   TIME(PS) =    1200.000  TEMP(K) =     2.80  PRESS =   191.8
 Etot   =       117.8818  EKtot   =        63.5137  EPtot      =       100.4378
 BOND   =         1.6232  ANGLE   =         1.1373  DIHED      =         0.0000
 1-4 NB =         0.0000  1-4 EEL =         0.0000  VDWAALS    =        93.3854
 EELEC  =       155.3512  EHBOND  =         0.0000  RESTRAINT  =         0.0000
 EKCMT  =        45.3753  VIRIAL  =       482.0407  VOLUME     =       991.9725
                                                    Density    =         0.0079
 DV/DL  =        22.4898
 ------------------------------------------------------------------------------

      DV/DL, AVERAGES OVER  500000 STEPS

 NSTEP =   500000   TIME(PS) =    1200.000  TEMP(K) =     2.80  PRESS =     0.0
 Etot   =         0.0000  EKtot   =         0.0000  EPtot      =      1099.4291
 BOND   =         0.0000  ANGLE   =         0.0000  DIHED      =         0.0000
 1-4 NB =         0.0000  1-4 EEL =         0.0000  VDWAALS    =       -41.6629
 EELEC  =      1141.0920  EHBOND  =         0.0000  RESTRAINT  =         0.0000
 EKCMT  =         0.0000  VIRIAL  =         0.0000  VOLUME     =         0.0000
                                                    Density    =         0.0000
 DV/DL  =      1099.4291
 ------------------------------------------------------------------------------
