-------------------------------------------------------
          Amber 20 PMEMD                              2020
          -------------------------------------------------------

  [-O]verwriting output

File Assignments:

 Here is the input file:

 &cntrl
   nstlim=500000, nscm=1000,
   ntx=1, irest=0, ntpr=1000,
   tempi=300.0, temp0=300.0, ntt=3, gamma_ln=2.0,
   ntb=1, igb=0, cut=10.0,
   dt=0.002, ig=-1,
   ntc=2, ntf=2,
   iwrap=0,
   ntwr=1000, ntwx=50000, ntave=1000,
   ioutfm=1, ntwv=-1,
   ifsc = 0, icfe=1,
   clambda=0.43738,
   timask1=':1',
   timask2=':2',
/

Note: ig = -1. Setting random seed to   689673 based on wallclock time in
      microseconds.

--------------------------------------------------------------------------------
   1.  RESOURCE   USE:
--------------------------------------------------------------------------------

 getting box info from netcdf restart file
 NATOM  =      10 NTYPES =       6 NBONH =       0 MBONA  =       8
 NTHETH =       0 MTHETA =      12 NPHIH =       0 MPHIA  =       0
 NHPARM =       0 NPARM  =       0 NNB   =      22 NRES   =       2
 NBONA  =       8 NTHETA =      12 NPHIA =       0 NUMBND =       1
 NUMANG =       1 NPTRA  =       0 NATYP =       4 NPHB   =       1
 IFBOX  =       2 NMXRS  =       5 IFCAP =       0 NEXTRA =       0
 NCOPY  =       0

     BOX TYPE: TRUNCATED OCTAHEDRON

--------------------------------------------------------------------------------
   2.  CONTROL  DATA  FOR  THE  RUN
--------------------------------------------------------------------------------

default_name

General flags:
     imin    =       0, nmropt  =       0

Nature and format of input:
     ntx     =       1, irest   =       0, ntrx    =       1

Nature and format of output:
     ntxo    =       2, ntpr    =    1000, ntrx    =       1, ntwr    =    1000
     iwrap   =       0, ntwx    =   50000, ntwv    =      -1, ntwe    =       0
     ioutfm  =       1, ntwprt  =       0, idecomp =       0, rbornstat=      0

Potential function:
     ntf     =       2, ntb     =       1, igb     =       0, nsnb    =      25
     ipol    =       0, gbsa    =       0, iesp    =       0
     dielc   =   1.00000, cut     =  10.00000, intdiel =   1.00000

Frozen or restrained atoms:
     ibelly  =       0, ntr     =       0

Molecular dynamics:
     nstlim  =    500000, nscm    =      1000, nrespa  =         1
     t       =   0.00000, dt      =   0.00200, vlimit  =  -1.00000

Langevin dynamics temperature regulation:
     ig      =  689673
     temp0   = 300.00000, tempi   = 300.00000, gamma_ln=   2.00000

SHAKE:
     ntc     =       2, jfastw  =       0
     tol     =   0.00001

Free energy options:
     icfe    =       1, ifsc    =       0, klambda =       1
     clambda =  0.4374, scalpha =  0.5000, scbeta  = 12.0000
     sceeorder =       2
     dynlmb =  0.0000 logdvdl =       0

Ewald parameters:
     verbose =       0, ew_type =       0, nbflag  =       1, use_pme =       1
     vdwmeth =       1, eedmeth =       1, netfrc  =       1
     Box X =   55.004   Box Y =   55.004   Box Z =   55.004
     Alpha =  109.471   Beta  =  109.471   Gamma =  109.471
     NFFT1 =   56       NFFT2 =   56       NFFT3 =   56
     Cutoff=   10.000   Tol   =0.100E-04
     Ewald Coefficient =  0.27511
     Interpolation order =    4
     TI Mask 1 :1; matches      5 atoms
     TI Mask 2 :2; matches      5 atoms
     TI region 1:       5 atoms
     TI region 2:       5 atoms
     Checking for mismatched coordinates.

--------------------------------------------------------------------------------
   3.  ATOMIC COORDINATES AND VELOCITIES
--------------------------------------------------------------------------------

default_name
 begin time read from input coords =     0.000 ps

 Number of triangulated 3-point waters found:        0

     Sum of charges for TI region  1 =  -2.99999999
     Skip neutralizing charges...

     Sum of charges for TI region  2 =   0.00000000
     Skip neutralizing charges...

--------------------------------------------------------------------------------
   4.  RESULTS
 NSTEP =        0   TIME(PS) =       0.000  TEMP(K) =   292.33  PRESS =     0.0
 Etot   =       -37.4729  EKtot   =         4.3568  EPtot      =       -41.8298
 BOND   =         0.0000  ANGLE   =         6.2592  DIHED      =         0.0000
 1-4 NB =         0.0000  1-4 EEL =         0.0000  VDWAALS    =        -0.0002
 EELEC  =       -48.0888  EHBOND  =         0.0000  RESTRAINT  =         0.0000
 DV/DL  =        85.4733
 ------------------------------------------------------------------------------

      A V E R A G E S   O V E R    1000 S T E P S

 NSTEP =     1000   TIME(PS) =       2.000  TEMP(K) =   343.18  PRESS =     0.0
 Etot   =       -34.6068  EKtot   =         5.1148  EPtot      =       -39.7215
 BOND   =         0.9039  ANGLE   =         7.4557  DIHED      =         0.0000
 1-4 NB =         0.0000  1-4 EEL =         0.0000  VDWAALS    =        -0.0002
 EELEC  =       -48.0809  EHBOND  =         0.0000  RESTRAINT  =         0.0000
 DV/DL  =        85.4593
 ------------------------------------------------------------------------------

      R M S  F L U C T U A T I O N S

 NSTEP =     1000   TIME(PS) =       2.000  TEMP(K) =   109.18  PRESS =     0.0
 Etot   =         1.7927  EKtot   =         1.6272  EPtot      =         0.9254
 BOND   =         0.5083  ANGLE   =         0.8091  DIHED      =         0.0000
 1-4 NB =         0.0000  1-4 EEL =         0.0000  VDWAALS    =         0.0000
 EELEC  =         0.0062  EHBOND  =         0.0000  RESTRAINT  =         0.0000
 DV/DL  =         0.0111
 ------------------------------------------------------------------------------

      A V E R A G E S   O V E R    1000 S T E P S

 NSTEP =     1000   TIME(PS) =       2.000  TEMP(K) =   343.18  PRESS =     0.0
 Etot   =       -34.6068  EKtot   =         5.1148  EPtot      =       -39.7215
 BOND   =         0.9039  ANGLE   =         7.4557  DIHED      =         0.0000
 1-4 NB =         0.0000  1-4 EEL =         0.0000  VDWAALS    =        -0.0002
 EELEC  =       -48.0809  EHBOND  =         0.0000  RESTRAINT  =         0.0000
 DV/DL  =        85.4593
 ------------------------------------------------------------------------------

      R M S  F L U C T U A T I O N S

 NSTEP =     1000   TIME(PS) =       2.000  TEMP(K) =   109.18  PRESS =     0.0
 Etot   =         1.7927  EKtot   =         1.6272  EPtot      =         0.9254
 BOND   =         0.5083  ANGLE   =         0.8091  DIHED      =         0.0000
 1-4 NB =         0.0000  1-4 EEL =         0.0000  VDWAALS    =         0.0000
 EELEC  =         0.0062  EHBOND  =         0.0000  RESTRAINT  =         0.0000
 DV/DL  =         0.0111
 ------------------------------------------------------------------------------

      DV/DL, AVERAGES OVER    1000 STEPS

 NSTEP =     1000   TIME(PS) =       2.000  TEMP(K) =   109.18  PRESS =     0.0
 Etot   =         0.0000  EKtot   =         0.0000  EPtot      =        85.4593
 BOND   =         0.0000  ANGLE   =         0.0000  DIHED      =         0.0000
 1-4 NB =         0.0000  1-4 EEL =         0.0000  VDWAALS    =         0.0003
 EELEC  =        85.4590  EHBOND  =         0.0000  RESTRAINT  =         0.0000
 DV/DL  =        85.4593
 ------------------------------------------------------------------------------

      A V E R A G E S   O V E R    1000 S T E P S

 NSTEP =     2000   TIME(PS) =       4.000  TEMP(K) =   240.82  PRESS =     0.0
 Etot   =       -36.2777  EKtot   =         3.5892  EPtot      =       -39.8669
 BOND   =         0.7552  ANGLE   =         7.4567  DIHED      =         0.0000
 1-4 NB =         0.0000  1-4 EEL =         0.0000  VDWAALS    =        -0.0002
 EELEC  =       -48.0786  EHBOND  =         0.0000  RESTRAINT  =         0.0000
 DV/DL  =        85.4551
 ------------------------------------------------------------------------------

      R M S  F L U C T U A T I O N S

 NSTEP =     2000   TIME(PS) =       4.000  TEMP(K) =    73.87  PRESS =     0.0
 Etot   =         1.4382  EKtot   =         1.1009  EPtot      =         0.8015
 BOND   =         0.5295  ANGLE   =         0.6017  DIHED      =         0.0000
 1-4 NB =         0.0000  1-4 EEL =         0.0000  VDWAALS    =         0.0000
 EELEC  =         0.0058  EHBOND  =         0.0000  RESTRAINT  =         0.0000
 DV/DL  =         0.0102
 ------------------------------------------------------------------------------

      A V E R A G E S   O V E R    1000 S T E P S

 NSTEP =     2000   TIME(PS) =       4.000  TEMP(K) =   240.82  PRESS =     0.0
 Etot   =       -36.2777  EKtot   =         3.5892  EPtot      =       -39.8669
 BOND   =         0.7552  ANGLE   =         7.4567  DIHED      =         0.0000
 1-4 NB =         0.0000  1-4 EEL =         0.0000  VDWAALS    =        -0.0002
 EELEC  =       -48.0786  EHBOND  =         0.0000  RESTRAINT  =         0.0000
 DV/DL  =        85.4551
 ------------------------------------------------------------------------------

      R M S  F L U C T U A T I O N S

 NSTEP =     2000   TIME(PS) =       4.000  TEMP(K) =    73.87  PRESS =     0.0
 Etot   =         1.4382  EKtot   =         1.1009  EPtot      =         0.8015
 BOND   =         0.5295  ANGLE   =         0.6017  DIHED      =         0.0000
 1-4 NB =         0.0000  1-4 EEL =         0.0000  VDWAALS    =         0.0000
 EELEC  =         0.0058  EHBOND  =         0.0000  RESTRAINT  =         0.0000
 DV/DL  =         0.0102
 ------------------------------------------------------------------------------

      DV/DL, AVERAGES OVER    1000 STEPS

 NSTEP =     2000   TIME(PS) =       4.000  TEMP(K) =    73.87  PRESS =     0.0
 Etot   =         0.0000  EKtot   =         0.0000  EPtot      =        85.4551
 BOND   =         0.0000  ANGLE   =         0.0000  DIHED      =         0.0000
 1-4 NB =         0.0000  1-4 EEL =         0.0000  VDWAALS    =         0.0003
 EELEC  =        85.4548  EHBOND  =         0.0000  RESTRAINT  =         0.0000
 DV/DL  =        85.4551
 ------------------------------------------------------------------------------

      A V E R A G E S   O V E R    1000 S T E P S

 NSTEP =   500000   TIME(PS) =    1000.000  TEMP(K) =   290.23  PRESS =     0.0
 Etot   =       -34.6214  EKtot   =         4.3256  EPtot      =       -38.9470
 BOND   =         1.6883  ANGLE   =         7.4444  DIHED      =         0.0000
 1-4 NB =         0.0000  1-4 EEL =         0.0000  VDWAALS    =        -0.0002
 EELEC  =       -48.0795  EHBOND  =         0.0000  RESTRAINT  =         0.0000
 DV/DL  =        85.4567
 ------------------------------------------------------------------------------

      R M S  F L U C T U A T I O N S

 NSTEP =   500000   TIME(PS) =    1000.000  TEMP(K) =   134.06  PRESS =     0.0
 Etot   =         2.6762  EKtot   =         1.9980  EPtot      =         1.5258
 BOND   =         1.2624  ANGLE   =         0.6586  DIHED      =         0.0000
 1-4 NB =         0.0000  1-4 EEL =         0.0000  VDWAALS    =         0.0000
 EELEC  =         0.0051  EHBOND  =         0.0000  RESTRAINT  =         0.0000
 DV/DL  =         0.0091
 ------------------------------------------------------------------------------

      A V E R A G E S   O V E R    1000 S T E P S

 NSTEP =   500000   TIME(PS) =    1000.000  TEMP(K) =   290.23  PRESS =     0.0
 Etot   =       -34.6214  EKtot   =         4.3256  EPtot      =       -38.9470
 BOND   =         1.6883  ANGLE   =         7.4444  DIHED      =         0.0000
 1-4 NB =         0.0000  1-4 EEL =         0.0000  VDWAALS    =        -0.0002
 EELEC  =       -48.0795  EHBOND  =         0.0000  RESTRAINT  =         0.0000
 DV/DL  =        85.4567
 ------------------------------------------------------------------------------

      R M S  F L U C T U A T I O N S

 NSTEP =   500000   TIME(PS) =    1000.000  TEMP(K) =   134.06  PRESS =     0.0
 Etot   =         2.6762  EKtot   =         1.9980  EPtot      =         1.5258
 BOND   =         1.2624  ANGLE   =         0.6586  DIHED      =         0.0000
 1-4 NB =         0.0000  1-4 EEL =         0.0000  VDWAALS    =         0.0000
 EELEC  =         0.0051  EHBOND  =         0.0000  RESTRAINT  =         0.0000
 DV/DL  =         0.0091
 ------------------------------------------------------------------------------

      DV/DL, AVERAGES OVER    1000 STEPS

 NSTEP =   500000   TIME(PS) =    1000.000  TEMP(K) =   134.06  PRESS =     0.0
 Etot   =         0.0000  EKtot   =         0.0000  EPtot      =        85.4567
 BOND   =         0.0000  ANGLE   =         0.0000  DIHED      =         0.0000
 1-4 NB =         0.0000  1-4 EEL =         0.0000  VDWAALS    =         0.0003
 EELEC  =        85.4564  EHBOND  =         0.0000  RESTRAINT  =         0.0000
 DV/DL  =        85.4567
 ------------------------------------------------------------------------------

      A V E R A G E S   O V E R  500000 S T E P S

 NSTEP =   500000   TIME(PS) =    1000.000  TEMP(K) =   303.87  PRESS =     0.0
 Etot   =       -34.5324  EKtot   =         4.5289  EPtot      =       -39.0614
 BOND   =         1.2495  ANGLE   =         7.7700  DIHED      =         0.0000
 1-4 NB =         0.0000  1-4 EEL =         0.0000  VDWAALS    =        -0.0002
 EELEC  =       -48.0808  EHBOND  =         0.0000  RESTRAINT  =         0.0000
 DV/DL  =        85.4590
 ------------------------------------------------------------------------------

      R M S  F L U C T U A T I O N S

 NSTEP =   500000   TIME(PS) =    1000.000  TEMP(K) =   111.63  PRESS =     0.0
 Etot   =         2.1022  EKtot   =         1.6637  EPtot      =         1.2968
 BOND   =         0.8839  ANGLE   =         0.9504  DIHED      =         0.0000
 1-4 NB =         0.0000  1-4 EEL =         0.0000  VDWAALS    =         0.0000
 EELEC  =         0.0062  EHBOND  =         0.0000  RESTRAINT  =         0.0000
 DV/DL  =         0.0110
 ------------------------------------------------------------------------------

      A V E R A G E S   O V E R  500000 S T E P S

 NSTEP =   500000   TIME(PS) =    1000.000  TEMP(K) =   303.87  PRESS =     0.0
 Etot   =       -34.5324  EKtot   =         4.5289  EPtot      =       -39.0614
 BOND   =         1.2495  ANGLE   =         7.7700  DIHED      =         0.0000
 1-4 NB =         0.0000  1-4 EEL =         0.0000  VDWAALS    =        -0.0002
 EELEC  =       -48.0808  EHBOND  =         0.0000  RESTRAINT  =         0.0000
 DV/DL  =        85.4590
 ------------------------------------------------------------------------------

      R M S  F L U C T U A T I O N S

 NSTEP =   500000   TIME(PS) =    1000.000  TEMP(K) =   111.63  PRESS =     0.0
 Etot   =         2.1022  EKtot   =         1.6637  EPtot      =         1.2968
 BOND   =         0.8839  ANGLE   =         0.9504  DIHED      =         0.0000
 1-4 NB =         0.0000  1-4 EEL =         0.0000  VDWAALS    =         0.0000
 EELEC  =         0.0062  EHBOND  =         0.0000  RESTRAINT  =         0.0000
 DV/DL  =         0.0110
 ------------------------------------------------------------------------------

      DV/DL, AVERAGES OVER  500000 STEPS

 NSTEP =   500000   TIME(PS) =    1000.000  TEMP(K) =   111.63  PRESS =     0.0
 Etot   =         0.0000  EKtot   =         0.0000  EPtot      =        85.4590
 BOND   =         0.0000  ANGLE   =         0.0000  DIHED      =         0.0000
 1-4 NB =         0.0000  1-4 EEL =         0.0000  VDWAALS    =         0.0003
 EELEC  =        85.4587  EHBOND  =         0.0000  RESTRAINT  =         0.0000
 DV/DL  =        85.4590
 ------------------------------------------------------------------------------
