-------------------------------------------------------
          Amber 20 PMEMD                              2020
          -------------------------------------------------------

  [-O]verwriting output

File Assignments:

 Here is the input file:

 &cntrl
   nstlim=1000000, nscm=1000,
   ntx=1, irest=0, ntpr=1000,
   tempi=300.0, temp0=300.0, ntt=3, gamma_ln=2.0,
   ntb=1, igb=0, cut=10.0,
   dt=0.001, ig=-1,
   ntc=1, ntf=1,
   iwrap=0,
   ntwr=1000, ntwx=50000, ntave=1000,
   ioutfm=1, ntwv=-1,
   ifsc = 1, icfe=1,
   clambda=0.04794,
   timask1=':1',
   timask2=':2',
/

Note: ig = -1. Setting random seed to   152388 based on wallclock time in
      microseconds.

--------------------------------------------------------------------------------
   1.  RESOURCE   USE:
--------------------------------------------------------------------------------

 getting box info from netcdf restart file
 NATOM  =      10 NTYPES =       6 NBONH =       0 MBONA  =       8
 NTHETH =       0 MTHETA =      12 NPHIH =       0 MPHIA  =       0
 NHPARM =       0 NPARM  =       0 NNB   =      22 NRES   =       2
 NBONA  =       8 NTHETA =      12 NPHIA =       0 NUMBND =       1
 NUMANG =       1 NPTRA  =       0 NATYP =       4 NPHB   =       1
 IFBOX  =       2 NMXRS  =       5 IFCAP =       0 NEXTRA =       0
 NCOPY  =       0

     BOX TYPE: TRUNCATED OCTAHEDRON

--------------------------------------------------------------------------------
   2.  CONTROL  DATA  FOR  THE  RUN
--------------------------------------------------------------------------------

default_name

General flags:
     imin    =       0, nmropt  =       0

Nature and format of input:
     ntx     =       1, irest   =       0, ntrx    =       1

Nature and format of output:
     ntxo    =       2, ntpr    =    1000, ntrx    =       1, ntwr    =    1000
     iwrap   =       0, ntwx    =   50000, ntwv    =      -1, ntwe    =       0
     ioutfm  =       1, ntwprt  =       0, idecomp =       0, rbornstat=      0

Potential function:
     ntf     =       1, ntb     =       1, igb     =       0, nsnb    =      25
     ipol    =       0, gbsa    =       0, iesp    =       0
     dielc   =   1.00000, cut     =  10.00000, intdiel =   1.00000

Frozen or restrained atoms:
     ibelly  =       0, ntr     =       0

Molecular dynamics:
     nstlim  =   1000000, nscm    =      1000, nrespa  =         1
     t       =   0.00000, dt      =   0.00100, vlimit  =  -1.00000

Langevin dynamics temperature regulation:
     ig      =  152388
     temp0   = 300.00000, tempi   = 300.00000, gamma_ln=   2.00000

Free energy options:
     icfe    =       1, ifsc    =       1, klambda =       1
     clambda =  0.0479, scalpha =  0.5000, scbeta  = 12.0000
     sceeorder =       2
     dynlmb =  0.0000 logdvdl =       0

Ewald parameters:
     verbose =       0, ew_type =       0, nbflag  =       1, use_pme =       1
     vdwmeth =       1, eedmeth =       1, netfrc  =       1
     Box X =   55.004   Box Y =   55.004   Box Z =   55.004
     Alpha =  109.471   Beta  =  109.471   Gamma =  109.471
     NFFT1 =   56       NFFT2 =   56       NFFT3 =   56
     Cutoff=   10.000   Tol   =0.100E-04
     Ewald Coefficient =  0.27511
     Interpolation order =    4
     TI Mask 1 :1; matches      5 atoms
     TI Mask 2 :2; matches      5 atoms
     TI region 1:       5 atoms
     TI region 2:       5 atoms

--------------------------------------------------------------------------------
   3.  ATOMIC COORDINATES AND VELOCITIES
--------------------------------------------------------------------------------

default_name
 begin time read from input coords =     0.000 ps

 Number of triangulated 3-point waters found:        0
 Number of shake restraints removed in TI region  1 :        0
 Number of shake restraints removed in TI region  2 :        0

     Sum of charges for TI region  1 =  -2.99999999
     Skip neutralizing charges...

     Sum of charges for TI region  2 =   0.00000000
     Skip neutralizing charges...

--------------------------------------------------------------------------------
   4.  RESULTS
 NSTEP =        0   TIME(PS) =       0.000  TEMP(K) =   245.24  PRESS =     0.0
 Etot   =       -71.4511  EKtot   =         3.6550  EPtot      =       -75.1061
 BOND   =         0.0000  ANGLE   =         6.2592  DIHED      =         0.0000
 1-4 NB =         0.0000  1-4 EEL =         0.0000  VDWAALS    =        -0.0003
 EELEC  =       -81.3651  EHBOND  =         0.0000  RESTRAINT  =         0.0000
 DV/DL  =        85.4624
 ------------------------------------------------------------------------------

      A V E R A G E S   O V E R    1000 S T E P S

 NSTEP =     1000   TIME(PS) =       1.000  TEMP(K) =   197.81  PRESS =     0.0
 Etot   =       -70.4733  EKtot   =         2.9482  EPtot      =       -73.4214
 BOND   =         0.8248  ANGLE   =         7.1152  DIHED      =         0.0000
 1-4 NB =         0.0000  1-4 EEL =         0.0000  VDWAALS    =        -0.0003
 EELEC  =       -81.3612  EHBOND  =         0.0000  RESTRAINT  =         0.0000
 DV/DL  =        85.4586
 ------------------------------------------------------------------------------

      R M S  F L U C T U A T I O N S

 NSTEP =     1000   TIME(PS) =       1.000  TEMP(K) =    64.00  PRESS =     0.0
 Etot   =         1.1992  EKtot   =         0.9538  EPtot      =         0.7147
 BOND   =         0.6266  ANGLE   =         0.4256  DIHED      =         0.0000
 1-4 NB =         0.0000  1-4 EEL =         0.0000  VDWAALS    =         0.0000
 EELEC  =         0.0058  EHBOND  =         0.0000  RESTRAINT  =         0.0000
 DV/DL  =         0.0218
 ------------------------------------------------------------------------------

      A V E R A G E S   O V E R    1000 S T E P S

 NSTEP =     1000   TIME(PS) =       1.000  TEMP(K) =   197.84  PRESS =     0.0
 Etot   =       -70.4728  EKtot   =         2.9486  EPtot      =       -73.4214
 BOND   =         0.8248  ANGLE   =         7.1152  DIHED      =         0.0000
 1-4 NB =         0.0000  1-4 EEL =         0.0000  VDWAALS    =        -0.0003
 EELEC  =       -81.3612  EHBOND  =         0.0000  RESTRAINT  =         0.0000
 DV/DL  =        85.4586
 ------------------------------------------------------------------------------

      R M S  F L U C T U A T I O N S

 NSTEP =     1000   TIME(PS) =       1.000  TEMP(K) =    64.33  PRESS =     0.0
 Etot   =         1.2025  EKtot   =         0.9587  EPtot      =         0.7147
 BOND   =         0.6266  ANGLE   =         0.4256  DIHED      =         0.0000
 1-4 NB =         0.0000  1-4 EEL =         0.0000  VDWAALS    =         0.0000
 EELEC  =         0.0058  EHBOND  =         0.0000  RESTRAINT  =         0.0000
 DV/DL  =         0.0218
 ------------------------------------------------------------------------------

      DV/DL, AVERAGES OVER    1000 STEPS

 NSTEP =     1000   TIME(PS) =       1.000  TEMP(K) =    64.33  PRESS =     0.0
 Etot   =         0.0000  EKtot   =         0.0000  EPtot      =        85.4586
 BOND   =         0.0003  ANGLE   =         0.0000  DIHED      =         0.0000
 1-4 NB =         0.0000  1-4 EEL =         0.0000  VDWAALS    =         0.0003
 EELEC  =        85.4580  EHBOND  =         0.0000  RESTRAINT  =         0.0000
 DV/DL  =        85.4586
 ------------------------------------------------------------------------------

      A V E R A G E S   O V E R    1000 S T E P S

 NSTEP =     2000   TIME(PS) =       2.000  TEMP(K) =   239.67  PRESS =     0.0
 Etot   =       -69.5318  EKtot   =         3.5720  EPtot      =       -73.1038
 BOND   =         1.0079  ANGLE   =         7.2426  DIHED      =         0.0000
 1-4 NB =         0.0000  1-4 EEL =         0.0000  VDWAALS    =        -0.0003
 EELEC  =       -81.3540  EHBOND  =         0.0000  RESTRAINT  =         0.0000
 DV/DL  =        85.4497
 ------------------------------------------------------------------------------

      R M S  F L U C T U A T I O N S

 NSTEP =     2000   TIME(PS) =       2.000  TEMP(K) =    58.85  PRESS =     0.0
 Etot   =         0.8745  EKtot   =         0.8771  EPtot      =         0.6353
 BOND   =         0.6639  ANGLE   =         0.4230  DIHED      =         0.0000
 1-4 NB =         0.0000  1-4 EEL =         0.0000  VDWAALS    =         0.0000
 EELEC  =         0.0099  EHBOND  =         0.0000  RESTRAINT  =         0.0000
 DV/DL  =         0.0231
 ------------------------------------------------------------------------------

      A V E R A G E S   O V E R    1000 S T E P S

 NSTEP =     2000   TIME(PS) =       2.000  TEMP(K) =   239.74  PRESS =     0.0
 Etot   =       -69.5308  EKtot   =         3.5730  EPtot      =       -73.1038
 BOND   =         1.0079  ANGLE   =         7.2426  DIHED      =         0.0000
 1-4 NB =         0.0000  1-4 EEL =         0.0000  VDWAALS    =        -0.0003
 EELEC  =       -81.3540  EHBOND  =         0.0000  RESTRAINT  =         0.0000
 DV/DL  =        85.4497
 ------------------------------------------------------------------------------

      R M S  F L U C T U A T I O N S

 NSTEP =     2000   TIME(PS) =       2.000  TEMP(K) =    58.88  PRESS =     0.0
 Etot   =         0.8772  EKtot   =         0.8776  EPtot      =         0.6353
 BOND   =         0.6639  ANGLE   =         0.4230  DIHED      =         0.0000
 1-4 NB =         0.0000  1-4 EEL =         0.0000  VDWAALS    =         0.0000
 EELEC  =         0.0099  EHBOND  =         0.0000  RESTRAINT  =         0.0000
 DV/DL  =         0.0231
 ------------------------------------------------------------------------------

      DV/DL, AVERAGES OVER    1000 STEPS

 NSTEP =     2000   TIME(PS) =       2.000  TEMP(K) =    58.88  PRESS =     0.0
 Etot   =         0.0000  EKtot   =         0.0000  EPtot      =        85.4497
 BOND   =        -0.0010  ANGLE   =        -0.0001  DIHED      =         0.0000
 1-4 NB =         0.0000  1-4 EEL =         0.0000  VDWAALS    =         0.0003
 EELEC  =        85.4504  EHBOND  =         0.0000  RESTRAINT  =         0.0000
 DV/DL  =        85.4497
 ------------------------------------------------------------------------------

      A V E R A G E S   O V E R    1000 S T E P S

 NSTEP =  1000000   TIME(PS) =    1000.000  TEMP(K) =   199.40  PRESS =     0.0
 Etot   =       -70.3294  EKtot   =         2.9719  EPtot      =       -73.3013
 BOND   =         0.9401  ANGLE   =         7.1264  DIHED      =         0.0000
 1-4 NB =         0.0000  1-4 EEL =         0.0000  VDWAALS    =        -0.0003
 EELEC  =       -81.3675  EHBOND  =         0.0000  RESTRAINT  =         0.0000
 DV/DL  =        85.4647
 ------------------------------------------------------------------------------

      R M S  F L U C T U A T I O N S

 NSTEP =  1000000   TIME(PS) =    1000.000  TEMP(K) =    73.98  PRESS =     0.0
 Etot   =         1.3155  EKtot   =         1.1025  EPtot      =         0.8601
 BOND   =         0.7743  ANGLE   =         0.4555  DIHED      =         0.0000
 1-4 NB =         0.0000  1-4 EEL =         0.0000  VDWAALS    =         0.0000
 EELEC  =         0.0079  EHBOND  =         0.0000  RESTRAINT  =         0.0000
 DV/DL  =         0.0240
 ------------------------------------------------------------------------------

      A V E R A G E S   O V E R    1000 S T E P S

 NSTEP =  1000000   TIME(PS) =    1000.000  TEMP(K) =   200.07  PRESS =     0.0
 Etot   =       -70.3194  EKtot   =         2.9818  EPtot      =       -73.3013
 BOND   =         0.9401  ANGLE   =         7.1264  DIHED      =         0.0000
 1-4 NB =         0.0000  1-4 EEL =         0.0000  VDWAALS    =        -0.0003
 EELEC  =       -81.3675  EHBOND  =         0.0000  RESTRAINT  =         0.0000
 DV/DL  =        85.4647
 ------------------------------------------------------------------------------

      R M S  F L U C T U A T I O N S

 NSTEP =  1000000   TIME(PS) =    1000.000  TEMP(K) =    74.17  PRESS =     0.0
 Etot   =         1.3193  EKtot   =         1.1054  EPtot      =         0.8601
 BOND   =         0.7743  ANGLE   =         0.4555  DIHED      =         0.0000
 1-4 NB =         0.0000  1-4 EEL =         0.0000  VDWAALS    =         0.0000
 EELEC  =         0.0079  EHBOND  =         0.0000  RESTRAINT  =         0.0000
 DV/DL  =         0.0240
 ------------------------------------------------------------------------------

      DV/DL, AVERAGES OVER    1000 STEPS

 NSTEP =  1000000   TIME(PS) =    1000.000  TEMP(K) =    74.17  PRESS =     0.0
 Etot   =         0.0000  EKtot   =         0.0000  EPtot      =        85.4647
 BOND   =        -0.0003  ANGLE   =         0.0001  DIHED      =         0.0000
 1-4 NB =         0.0000  1-4 EEL =         0.0000  VDWAALS    =         0.0003
 EELEC  =        85.4646  EHBOND  =         0.0000  RESTRAINT  =         0.0000
 DV/DL  =        85.4647
 ------------------------------------------------------------------------------

      A V E R A G E S   O V E R 1000000 S T E P S

 NSTEP =  1000000   TIME(PS) =    1000.000  TEMP(K) =   300.75  PRESS =     0.0
 Etot   =       -67.9381  EKtot   =         4.4823  EPtot      =       -72.4204
 BOND   =         1.1841  ANGLE   =         7.7575  DIHED      =         0.0000
 1-4 NB =         0.0000  1-4 EEL =         0.0000  VDWAALS    =        -0.0003
 EELEC  =       -81.3618  EHBOND  =         0.0000  RESTRAINT  =         0.0000
 DV/DL  =        85.4589
 ------------------------------------------------------------------------------

      R M S  F L U C T U A T I O N S

 NSTEP =  1000000   TIME(PS) =    1000.000  TEMP(K) =   109.98  PRESS =     0.0
 Etot   =         2.0822  EKtot   =         1.6391  EPtot      =         1.2763
 BOND   =         0.8427  ANGLE   =         0.9577  DIHED      =         0.0000
 1-4 NB =         0.0000  1-4 EEL =         0.0000  VDWAALS    =         0.0000
 EELEC  =         0.0105  EHBOND  =         0.0000  RESTRAINT  =         0.0000
 DV/DL  =         0.0268
 ------------------------------------------------------------------------------

      A V E R A G E S   O V E R 1000000 S T E P S

 NSTEP =  1000000   TIME(PS) =    1000.000  TEMP(K) =   300.75  PRESS =     0.0
 Etot   =       -67.9381  EKtot   =         4.4824  EPtot      =       -72.4204
 BOND   =         1.1841  ANGLE   =         7.7575  DIHED      =         0.0000
 1-4 NB =         0.0000  1-4 EEL =         0.0000  VDWAALS    =        -0.0003
 EELEC  =       -81.3618  EHBOND  =         0.0000  RESTRAINT  =         0.0000
 DV/DL  =        85.4589
 ------------------------------------------------------------------------------

      R M S  F L U C T U A T I O N S

 NSTEP =  1000000   TIME(PS) =    1000.000  TEMP(K) =   109.99  PRESS =     0.0
 Etot   =         2.0824  EKtot   =         1.6393  EPtot      =         1.2763
 BOND   =         0.8427  ANGLE   =         0.9577  DIHED      =         0.0000
 1-4 NB =         0.0000  1-4 EEL =         0.0000  VDWAALS    =         0.0000
 EELEC  =         0.0105  EHBOND  =         0.0000  RESTRAINT  =         0.0000
 DV/DL  =         0.0268
 ------------------------------------------------------------------------------

      DV/DL, AVERAGES OVER 1000000 STEPS

 NSTEP =  1000000   TIME(PS) =    1000.000  TEMP(K) =   109.99  PRESS =     0.0
 Etot   =         0.0000  EKtot   =         0.0000  EPtot      =        85.4589
 BOND   =        -0.0000  ANGLE   =        -0.0000  DIHED      =         0.0000
 1-4 NB =         0.0000  1-4 EEL =         0.0000  VDWAALS    =         0.0003
 EELEC  =        85.4586  EHBOND  =         0.0000  RESTRAINT  =         0.0000
 DV/DL  =        85.4589
 ------------------------------------------------------------------------------
