-------------------------------------------------------
          Amber 20 PMEMD                              2020
          -------------------------------------------------------

  [-O]verwriting output

File Assignments:

 Here is the input file:

 &cntrl
   nstlim=500000, nscm=1000,
   ntx=5, irest=1, ntpr=1000,
   tempi=300.0, temp0=300.0, ntt=3, gamma_ln=2.0,
   ntp=1, pres0=1.01325, taup=5.0,
   ntb=2, igb=0, cut=10.0,
   dt=0.002, ig=-1,
   ntc=2, ntf=2,
   iwrap=0,
   ntwr=1000, ntwx=50000, ntave=1000,
   ioutfm=1, ntwv=-1,
   ifsc = 0, icfe=1,
   clambda=0.31608,
   timask1=':1',
   timask2=':2',
/

Note: ig = -1. Setting random seed to   390971 based on wallclock time in
      microseconds.

--------------------------------------------------------------------------------
   1.  RESOURCE   USE:
--------------------------------------------------------------------------------

 getting box info from netcdf restart file
 NATOM  =   11419 NTYPES =       6 NBONH =   11409 MBONA  =       8
 NTHETH =       0 MTHETA =      12 NPHIH =       0 MPHIA  =       0
 NHPARM =       0 NPARM  =       0 NNB   =   15234 NRES   =    3805
 NBONA  =       8 NTHETA =      12 NPHIA =       0 NUMBND =       3
 NUMANG =       1 NPTRA  =       0 NATYP =       4 NPHB   =       1
 IFBOX  =       2 NMXRS  =       5 IFCAP =       0 NEXTRA =       0
 NCOPY  =       0

     BOX TYPE: TRUNCATED OCTAHEDRON

--------------------------------------------------------------------------------
   2.  CONTROL  DATA  FOR  THE  RUN
--------------------------------------------------------------------------------

default_name

General flags:
     imin    =       0, nmropt  =       0

Nature and format of input:
     ntx     =       5, irest   =       1, ntrx    =       1

Nature and format of output:
     ntxo    =       2, ntpr    =    1000, ntrx    =       1, ntwr    =    1000
     iwrap   =       0, ntwx    =   50000, ntwv    =      -1, ntwe    =       0
     ioutfm  =       1, ntwprt  =       0, idecomp =       0, rbornstat=      0

Potential function:
     ntf     =       2, ntb     =       2, igb     =       0, nsnb    =      25
     ipol    =       0, gbsa    =       0, iesp    =       0
     dielc   =   1.00000, cut     =  10.00000, intdiel =   1.00000

Frozen or restrained atoms:
     ibelly  =       0, ntr     =       0

Molecular dynamics:
     nstlim  =    500000, nscm    =      1000, nrespa  =         1
     t       =   0.00000, dt      =   0.00200, vlimit  =  -1.00000

Langevin dynamics temperature regulation:
     ig      =  390971
     temp0   = 300.00000, tempi   = 300.00000, gamma_ln=   2.00000

Pressure regulation:
     ntp     =       1
     pres0   =   1.01325, comp    =  44.60000, taup    =   5.00000

SHAKE:
     ntc     =       2, jfastw  =       0
     tol     =   0.00001

Free energy options:
     icfe    =       1, ifsc    =       0, klambda =       1
     clambda =  0.3161, scalpha =  0.5000, scbeta  = 12.0000
     sceeorder =       2
     dynlmb =  0.0000 logdvdl =       0

Ewald parameters:
     verbose =       0, ew_type =       0, nbflag  =       1, use_pme =       1
     vdwmeth =       1, eedmeth =       1, netfrc  =       1
     Box X =   55.004   Box Y =   55.004   Box Z =   55.004
     Alpha =  109.471   Beta  =  109.471   Gamma =  109.471
     NFFT1 =   56       NFFT2 =   56       NFFT3 =   56
     Cutoff=   10.000   Tol   =0.100E-04
     Ewald Coefficient =  0.27511
     Interpolation order =    4
     TI Mask 1 :1; matches      5 atoms
     TI Mask 2 :2; matches      5 atoms
     TI region 1:   11414 atoms
     TI region 2:   11414 atoms
     Checking for mismatched coordinates.

--------------------------------------------------------------------------------
   3.  ATOMIC COORDINATES AND VELOCITIES
--------------------------------------------------------------------------------

default_name
 begin time read from input coords =   200.000 ps

 Number of triangulated 3-point waters found:     3803

     Sum of charges for TI region  1 =  -2.99999999
     Skip neutralizing charges...

     Sum of charges for TI region  2 =   0.00000000
     Skip neutralizing charges...

--------------------------------------------------------------------------------
   4.  RESULTS
 NSTEP =     1000   TIME(PS) =     202.000  TEMP(K) =   301.53  PRESS = -1115.9
 Etot   =    -29140.6575  EKtot   =      6840.7146  EPtot      =    -35981.3721
 BOND   =         0.7414  ANGLE   =        11.1687  DIHED      =         0.0000
 1-4 NB =         0.0000  1-4 EEL =         0.0000  VDWAALS    =      5068.0579
 EELEC  =    -41061.3402  EHBOND  =         0.0000  RESTRAINT  =         0.0000
 EKCMT  =      3448.7020  VIRIAL  =      6488.4347  VOLUME     =    126162.7037
                                                    Density    =         0.9030
 DV/DL  =       856.7137
 ------------------------------------------------------------------------------

      A V E R A G E S   O V E R    1000 S T E P S

 NSTEP =     1000   TIME(PS) =     202.000  TEMP(K) =   300.65  PRESS =  -855.6
 Etot   =    -29071.0108  EKtot   =      6820.8809  EPtot      =    -35891.8917
 BOND   =         2.0678  ANGLE   =         8.0224  DIHED      =         0.0000
 1-4 NB =         0.0000  1-4 EEL =         0.0000  VDWAALS    =      5187.4335
 EELEC  =    -41089.4154  EHBOND  =         0.0000  RESTRAINT  =         0.0000
 EKCMT  =      3434.3417  VIRIAL  =      5782.7836  VOLUME     =    127161.1311
                                                    Density    =         0.8960
 DV/DL  =       856.9977
 ------------------------------------------------------------------------------

      R M S  F L U C T U A T I O N S

 NSTEP =     1000   TIME(PS) =     202.000  TEMP(K) =     2.54  PRESS =   164.3
 Etot   =        60.6807  EKtot   =        57.6797  EPtot      =        59.2810
 BOND   =         1.2896  ANGLE   =         1.0214  DIHED      =         0.0000
 1-4 NB =         0.0000  1-4 EEL =         0.0000  VDWAALS    =        96.5370
 EELEC  =       117.8503  EHBOND  =         0.0000  RESTRAINT  =         0.0000
 EKCMT  =        44.4567  VIRIAL  =       455.6561  VOLUME     =       537.9045
                                                    Density    =         0.0038
 DV/DL  =        18.1895
 ------------------------------------------------------------------------------

      A V E R A G E S   O V E R    1000 S T E P S

 NSTEP =     1000   TIME(PS) =     202.000  TEMP(K) =   300.65  PRESS =  -855.6
 Etot   =    -29071.0108  EKtot   =      6820.8809  EPtot      =    -35891.8917
 BOND   =         2.0678  ANGLE   =         8.0224  DIHED      =         0.0000
 1-4 NB =         0.0000  1-4 EEL =         0.0000  VDWAALS    =      5187.4335
 EELEC  =    -41089.4154  EHBOND  =         0.0000  RESTRAINT  =         0.0000
 EKCMT  =      3434.3417  VIRIAL  =      5782.7836  VOLUME     =    127161.1311
                                                    Density    =         0.8960
 DV/DL  =       856.9977
 ------------------------------------------------------------------------------

      R M S  F L U C T U A T I O N S

 NSTEP =     1000   TIME(PS) =     202.000  TEMP(K) =     2.54  PRESS =   164.3
 Etot   =        60.6807  EKtot   =        57.6797  EPtot      =        59.2810
 BOND   =         1.2896  ANGLE   =         1.0214  DIHED      =         0.0000
 1-4 NB =         0.0000  1-4 EEL =         0.0000  VDWAALS    =        96.5370
 EELEC  =       117.8503  EHBOND  =         0.0000  RESTRAINT  =         0.0000
 EKCMT  =        44.4567  VIRIAL  =       455.6561  VOLUME     =       537.9045
                                                    Density    =         0.0038
 DV/DL  =        18.1895
 ------------------------------------------------------------------------------

      DV/DL, AVERAGES OVER    1000 STEPS

 NSTEP =     1000   TIME(PS) =     202.000  TEMP(K) =     2.54  PRESS =     0.0
 Etot   =         0.0000  EKtot   =         0.0000  EPtot      =       856.9977
 BOND   =         0.0000  ANGLE   =         0.0000  DIHED      =         0.0000
 1-4 NB =         0.0000  1-4 EEL =         0.0000  VDWAALS    =       -35.3358
 EELEC  =       892.3335  EHBOND  =         0.0000  RESTRAINT  =         0.0000
 EKCMT  =         0.0000  VIRIAL  =         0.0000  VOLUME     =         0.0000
                                                    Density    =         0.0000
 DV/DL  =       856.9977
 ------------------------------------------------------------------------------

      A V E R A G E S   O V E R    1000 S T E P S

 NSTEP =     2000   TIME(PS) =     204.000  TEMP(K) =   301.48  PRESS =  -655.6
 Etot   =    -29147.9772  EKtot   =      6839.5444  EPtot      =    -35987.5216
 BOND   =         1.2860  ANGLE   =         7.6338  DIHED      =         0.0000
 1-4 NB =         0.0000  1-4 EEL =         0.0000  VDWAALS    =      5262.4503
 EELEC  =    -41258.8917  EHBOND  =         0.0000  RESTRAINT  =         0.0000
 EKCMT  =      3420.4828  VIRIAL  =      5195.8334  VOLUME     =    125360.6457
                                                    Density    =         0.9088
 DV/DL  =       855.1726
 ------------------------------------------------------------------------------

      R M S  F L U C T U A T I O N S

 NSTEP =     2000   TIME(PS) =     204.000  TEMP(K) =     2.59  PRESS =   186.4
 Etot   =        58.0175  EKtot   =        58.6845  EPtot      =        57.7328
 BOND   =         0.8509  ANGLE   =         0.8046  DIHED      =         0.0000
 1-4 NB =         0.0000  1-4 EEL =         0.0000  VDWAALS    =        89.0680
 EELEC  =       111.3446  EHBOND  =         0.0000  RESTRAINT  =         0.0000
 EKCMT  =        37.8512  VIRIAL  =       499.7016  VOLUME     =       404.5726
                                                    Density    =         0.0029
 DV/DL  =        22.6918
 ------------------------------------------------------------------------------

      A V E R A G E S   O V E R    1000 S T E P S

 NSTEP =     2000   TIME(PS) =     204.000  TEMP(K) =   301.48  PRESS =  -655.6
 Etot   =    -29147.9772  EKtot   =      6839.5444  EPtot      =    -35987.5216
 BOND   =         1.2860  ANGLE   =         7.6338  DIHED      =         0.0000
 1-4 NB =         0.0000  1-4 EEL =         0.0000  VDWAALS    =      5262.4503
 EELEC  =    -41258.8917  EHBOND  =         0.0000  RESTRAINT  =         0.0000
 EKCMT  =      3420.4828  VIRIAL  =      5195.8334  VOLUME     =    125360.6457
                                                    Density    =         0.9088
 DV/DL  =       855.1726
 ------------------------------------------------------------------------------

      R M S  F L U C T U A T I O N S

 NSTEP =     2000   TIME(PS) =     204.000  TEMP(K) =     2.59  PRESS =   186.4
 Etot   =        58.0175  EKtot   =        58.6845  EPtot      =        57.7328
 BOND   =         0.8509  ANGLE   =         0.8046  DIHED      =         0.0000
 1-4 NB =         0.0000  1-4 EEL =         0.0000  VDWAALS    =        89.0680
 EELEC  =       111.3446  EHBOND  =         0.0000  RESTRAINT  =         0.0000
 EKCMT  =        37.8512  VIRIAL  =       499.7016  VOLUME     =       404.5726
                                                    Density    =         0.0029
 DV/DL  =        22.6918
 ------------------------------------------------------------------------------

      DV/DL, AVERAGES OVER    1000 STEPS

 NSTEP =     2000   TIME(PS) =     204.000  TEMP(K) =     2.59  PRESS =     0.0
 Etot   =         0.0000  EKtot   =         0.0000  EPtot      =       855.1726
 BOND   =         0.0000  ANGLE   =         0.0000  DIHED      =         0.0000
 1-4 NB =         0.0000  1-4 EEL =         0.0000  VDWAALS    =       -36.1630
 EELEC  =       891.3356  EHBOND  =         0.0000  RESTRAINT  =         0.0000
 EKCMT  =         0.0000  VIRIAL  =         0.0000  VOLUME     =         0.0000
                                                    Density    =         0.0000
 DV/DL  =       855.1726
 ------------------------------------------------------------------------------

      A V E R A G E S   O V E R    1000 S T E P S

 NSTEP =   500000   TIME(PS) =    1200.000  TEMP(K) =   300.07  PRESS =   -61.5
 Etot   =    -29823.6824  EKtot   =      6807.6232  EPtot      =    -36631.3056
 BOND   =         1.3505  ANGLE   =         7.9177  DIHED      =         0.0000
 1-4 NB =         0.0000  1-4 EEL =         0.0000  VDWAALS    =      5420.9741
 EELEC  =    -42061.5479  EHBOND  =         0.0000  RESTRAINT  =         0.0000
 EKCMT  =      3415.9873  VIRIAL  =      3569.3677  VOLUME     =    115546.7523
                                                    Density    =         0.9860
 DV/DL  =       841.3849
 ------------------------------------------------------------------------------

      R M S  F L U C T U A T I O N S

 NSTEP =   500000   TIME(PS) =    1200.000  TEMP(K) =     2.41  PRESS =   144.2
 Etot   =        51.6644  EKtot   =        54.6369  EPtot      =        64.0413
 BOND   =         0.8947  ANGLE   =         0.9155  DIHED      =         0.0000
 1-4 NB =         0.0000  1-4 EEL =         0.0000  VDWAALS    =        72.1240
 EELEC  =       104.0789  EHBOND  =         0.0000  RESTRAINT  =         0.0000
 EKCMT  =        40.1102  VIRIAL  =       356.0959  VOLUME     =        37.5504
                                                    Density    =         0.0003
 DV/DL  =        20.9298
 ------------------------------------------------------------------------------

      A V E R A G E S   O V E R    1000 S T E P S

 NSTEP =   500000   TIME(PS) =    1200.000  TEMP(K) =   300.07  PRESS =   -61.5
 Etot   =    -29823.6824  EKtot   =      6807.6232  EPtot      =    -36631.3056
 BOND   =         1.3505  ANGLE   =         7.9177  DIHED      =         0.0000
 1-4 NB =         0.0000  1-4 EEL =         0.0000  VDWAALS    =      5420.9741
 EELEC  =    -42061.5479  EHBOND  =         0.0000  RESTRAINT  =         0.0000
 EKCMT  =      3415.9873  VIRIAL  =      3569.3677  VOLUME     =    115546.7523
                                                    Density    =         0.9860
 DV/DL  =       841.3849
 ------------------------------------------------------------------------------

      R M S  F L U C T U A T I O N S

 NSTEP =   500000   TIME(PS) =    1200.000  TEMP(K) =     2.41  PRESS =   144.2
 Etot   =        51.6644  EKtot   =        54.6369  EPtot      =        64.0413
 BOND   =         0.8947  ANGLE   =         0.9155  DIHED      =         0.0000
 1-4 NB =         0.0000  1-4 EEL =         0.0000  VDWAALS    =        72.1240
 EELEC  =       104.0789  EHBOND  =         0.0000  RESTRAINT  =         0.0000
 EKCMT  =        40.1102  VIRIAL  =       356.0959  VOLUME     =        37.5504
                                                    Density    =         0.0003
 DV/DL  =        20.9298
 ------------------------------------------------------------------------------

      DV/DL, AVERAGES OVER    1000 STEPS

 NSTEP =   500000   TIME(PS) =    1200.000  TEMP(K) =     2.41  PRESS =     0.0
 Etot   =         0.0000  EKtot   =         0.0000  EPtot      =       841.3849
 BOND   =         0.0000  ANGLE   =         0.0000  DIHED      =         0.0000
 1-4 NB =         0.0000  1-4 EEL =         0.0000  VDWAALS    =       -32.2916
 EELEC  =       873.6766  EHBOND  =         0.0000  RESTRAINT  =         0.0000
 EKCMT  =         0.0000  VIRIAL  =         0.0000  VOLUME     =         0.0000
                                                    Density    =         0.0000
 DV/DL  =       841.3849
 ------------------------------------------------------------------------------

      A V E R A G E S   O V E R  500000 S T E P S

 NSTEP =   500000   TIME(PS) =    1200.000  TEMP(K) =   300.04  PRESS =   -10.6
 Etot   =    -29822.4205  EKtot   =      6806.9861  EPtot      =    -36629.4066
 BOND   =         1.7716  ANGLE   =         7.9482  DIHED      =         0.0000
 1-4 NB =         0.0000  1-4 EEL =         0.0000  VDWAALS    =      5448.0723
 EELEC  =    -42087.1986  EHBOND  =         0.0000  RESTRAINT  =         0.0000
 EKCMT  =      3414.1570  VIRIAL  =      3442.0818  VOLUME     =    115768.0925
                                                    Density    =         0.9842
 DV/DL  =       856.6252
 ------------------------------------------------------------------------------

      R M S  F L U C T U A T I O N S

 NSTEP =   500000   TIME(PS) =    1200.000  TEMP(K) =     2.80  PRESS =   190.2
 Etot   =       124.9578  EKtot   =        63.5346  EPtot      =       106.5079
 BOND   =         1.1982  ANGLE   =         1.0665  DIHED      =         0.0000
 1-4 NB =         0.0000  1-4 EEL =         0.0000  VDWAALS    =        94.7326
 EELEC  =       164.7001  EHBOND  =         0.0000  RESTRAINT  =         0.0000
 EKCMT  =        45.3720  VIRIAL  =       480.3818  VOLUME     =       946.4813
                                                    Density    =         0.0075
 DV/DL  =        23.9190
 ------------------------------------------------------------------------------

      A V E R A G E S   O V E R  500000 S T E P S

 NSTEP =   500000   TIME(PS) =    1200.000  TEMP(K) =   300.04  PRESS =   -10.6
 Etot   =    -29822.4205  EKtot   =      6806.9861  EPtot      =    -36629.4066
 BOND   =         1.7716  ANGLE   =         7.9482  DIHED      =         0.0000
 1-4 NB =         0.0000  1-4 EEL =         0.0000  VDWAALS    =      5448.0723
 EELEC  =    -42087.1986  EHBOND  =         0.0000  RESTRAINT  =         0.0000
 EKCMT  =      3414.1570  VIRIAL  =      3442.0818  VOLUME     =    115768.0925
                                                    Density    =         0.9842
 DV/DL  =       856.6252
 ------------------------------------------------------------------------------

      R M S  F L U C T U A T I O N S

 NSTEP =   500000   TIME(PS) =    1200.000  TEMP(K) =     2.80  PRESS =   190.2
 Etot   =       124.9578  EKtot   =        63.5346  EPtot      =       106.5079
 BOND   =         1.1982  ANGLE   =         1.0665  DIHED      =         0.0000
 1-4 NB =         0.0000  1-4 EEL =         0.0000  VDWAALS    =        94.7326
 EELEC  =       164.7001  EHBOND  =         0.0000  RESTRAINT  =         0.0000
 EKCMT  =        45.3720  VIRIAL  =       480.3818  VOLUME     =       946.4813
                                                    Density    =         0.0075
 DV/DL  =        23.9190
 ------------------------------------------------------------------------------

      DV/DL, AVERAGES OVER  500000 STEPS

 NSTEP =   500000   TIME(PS) =    1200.000  TEMP(K) =     2.80  PRESS =     0.0
 Etot   =         0.0000  EKtot   =         0.0000  EPtot      =       856.6252
 BOND   =         0.0000  ANGLE   =         0.0000  DIHED      =         0.0000
 1-4 NB =         0.0000  1-4 EEL =         0.0000  VDWAALS    =       -32.1011
 EELEC  =       888.7263  EHBOND  =         0.0000  RESTRAINT  =         0.0000
 EKCMT  =         0.0000  VIRIAL  =         0.0000  VOLUME     =         0.0000
                                                    Density    =         0.0000
 DV/DL  =       856.6252
 ------------------------------------------------------------------------------
