-------------------------------------------------------
          Amber 20 PMEMD                              2020
          -------------------------------------------------------

  [-O]verwriting output

File Assignments:

 Here is the input file:

 &cntrl
   nstlim=500000, nscm=1000,
   ntx=5, irest=1, ntpr=1000,
   tempi=300.0, temp0=300.0, ntt=3, gamma_ln=2.0,
   ntp=1, pres0=1.01325, taup=5.0,
   ntb=2, igb=0, cut=10.0,
   dt=0.002, ig=-1,
   ntc=2, ntf=2,
   iwrap=0,
   ntwr=1000, ntwx=50000, ntave=1000,
   ioutfm=1, ntwv=-1,
   ifsc = 0, icfe=1,
   clambda=0.00922,
   timask1=':1',
   timask2=':2', crgmask = ':2',
/

Note: ig = -1. Setting random seed to   459169 based on wallclock time in
      microseconds.

--------------------------------------------------------------------------------
   1.  RESOURCE   USE:
--------------------------------------------------------------------------------

 getting box info from netcdf restart file
 NATOM  =   11419 NTYPES =       4 NBONH =   11409 MBONA  =       8
 NTHETH =       0 MTHETA =      12 NPHIH =       0 MPHIA  =       0
 NHPARM =       0 NPARM  =       0 NNB   =   15234 NRES   =    3805
 NBONA  =       8 NTHETA =      12 NPHIA =       0 NUMBND =       3
 NUMANG =       1 NPTRA  =       0 NATYP =       4 NPHB   =       1
 IFBOX  =       2 NMXRS  =       5 IFCAP =       0 NEXTRA =       0
 NCOPY  =       0

     BOX TYPE: TRUNCATED OCTAHEDRON

--------------------------------------------------------------------------------
   2.  CONTROL  DATA  FOR  THE  RUN
--------------------------------------------------------------------------------

default_name

General flags:
     imin    =       0, nmropt  =       0

Nature and format of input:
     ntx     =       5, irest   =       1, ntrx    =       1

Nature and format of output:
     ntxo    =       2, ntpr    =    1000, ntrx    =       1, ntwr    =    1000
     iwrap   =       0, ntwx    =   50000, ntwv    =      -1, ntwe    =       0
     ioutfm  =       1, ntwprt  =       0, idecomp =       0, rbornstat=      0

Potential function:
     ntf     =       2, ntb     =       2, igb     =       0, nsnb    =      25
     ipol    =       0, gbsa    =       0, iesp    =       0
     dielc   =   1.00000, cut     =  10.00000, intdiel =   1.00000

Frozen or restrained atoms:
     ibelly  =       0, ntr     =       0

Molecular dynamics:
     nstlim  =    500000, nscm    =      1000, nrespa  =         1
     t       =   0.00000, dt      =   0.00200, vlimit  =  -1.00000

Langevin dynamics temperature regulation:
     ig      =  459169
     temp0   = 300.00000, tempi   = 300.00000, gamma_ln=   2.00000

Pressure regulation:
     ntp     =       1
     pres0   =   1.01325, comp    =  44.60000, taup    =   5.00000

SHAKE:
     ntc     =       2, jfastw  =       0
     tol     =   0.00001

Free energy options:
     icfe    =       1, ifsc    =       0, klambda =       1
     clambda =  0.0092, scalpha =  0.5000, scbeta  = 12.0000
     sceeorder =       2
     dynlmb =  0.0000 logdvdl =       0

Ewald parameters:
     verbose =       0, ew_type =       0, nbflag  =       1, use_pme =       1
     vdwmeth =       1, eedmeth =       1, netfrc  =       1
     Box X =   55.004   Box Y =   55.004   Box Z =   55.004
     Alpha =  109.471   Beta  =  109.471   Gamma =  109.471
     NFFT1 =   56       NFFT2 =   56       NFFT3 =   56
     Cutoff=   10.000   Tol   =0.100E-04
     Ewald Coefficient =  0.27511
     Interpolation order =    4
     TI Mask 1 :1; matches      5 atoms
     TI Mask 2 :2; matches      5 atoms
     TI region 1:   11414 atoms
     TI region 2:   11414 atoms
Removing charge of       1.4352 from atom       6
Removing charge of      -1.1088 from atom       7
Removing charge of      -1.1088 from atom       8
Removing charge of      -1.1088 from atom       9
Removing charge of      -1.1088 from atom      10
Total charge of  -2.99999999 removed from       5 atoms
     Checking for mismatched coordinates.

--------------------------------------------------------------------------------
   3.  ATOMIC COORDINATES AND VELOCITIES
--------------------------------------------------------------------------------

default_name
 begin time read from input coords =   200.000 ps

 Number of triangulated 3-point waters found:     3803

     Sum of charges for TI region  1 =  -2.99999999
     Skip neutralizing charges...

     Sum of charges for TI region  2 =   0.00000000
     Skip neutralizing charges...

--------------------------------------------------------------------------------
   4.  RESULTS
 NSTEP =     1000   TIME(PS) =     202.000  TEMP(K) =   298.39  PRESS =  -967.2
 Etot   =    -29323.7587  EKtot   =      6769.4479  EPtot      =    -36093.2066
 BOND   =         2.8627  ANGLE   =         7.5461  DIHED      =         0.0000
 1-4 NB =         0.0000  1-4 EEL =         0.0000  VDWAALS    =      5193.9566
 EELEC  =    -41297.5720  EHBOND  =         0.0000  RESTRAINT  =         0.0000
 EKCMT  =      3468.2433  VIRIAL  =      6095.9413  VOLUME     =    125832.1658
                                                    Density    =         0.9054
 DV/DL  =      1127.2782
 ------------------------------------------------------------------------------

      A V E R A G E S   O V E R    1000 S T E P S

 NSTEP =     1000   TIME(PS) =     202.000  TEMP(K) =   299.72  PRESS = -1002.5
 Etot   =    -29368.9454  EKtot   =      6799.7698  EPtot      =    -36168.7152
 BOND   =         2.8081  ANGLE   =         8.0570  DIHED      =         0.0000
 1-4 NB =         0.0000  1-4 EEL =         0.0000  VDWAALS    =      5234.4850
 EELEC  =    -41414.0652  EHBOND  =         0.0000  RESTRAINT  =         0.0000
 EKCMT  =      3414.7694  VIRIAL  =      6162.8448  VOLUME     =    126940.2904
                                                    Density    =         0.8975
 DV/DL  =      1186.7914
 ------------------------------------------------------------------------------

      R M S  F L U C T U A T I O N S

 NSTEP =     1000   TIME(PS) =     202.000  TEMP(K) =     2.66  PRESS =   140.3
 Etot   =        81.0315  EKtot   =        60.4354  EPtot      =        68.8867
 BOND   =         1.5831  ANGLE   =         1.2086  DIHED      =         0.0000
 1-4 NB =         0.0000  1-4 EEL =         0.0000  VDWAALS    =        76.3163
 EELEC  =       108.5983  EHBOND  =         0.0000  RESTRAINT  =         0.0000
 EKCMT  =        38.7235  VIRIAL  =       388.1919  VOLUME     =       641.1356
                                                    Density    =         0.0045
 DV/DL  =        21.0540
 ------------------------------------------------------------------------------

      A V E R A G E S   O V E R    1000 S T E P S

 NSTEP =     1000   TIME(PS) =     202.000  TEMP(K) =   299.72  PRESS = -1002.5
 Etot   =    -29368.9454  EKtot   =      6799.7698  EPtot      =    -36168.7152
 BOND   =         2.8081  ANGLE   =         8.0570  DIHED      =         0.0000
 1-4 NB =         0.0000  1-4 EEL =         0.0000  VDWAALS    =      5234.4850
 EELEC  =    -41414.0652  EHBOND  =         0.0000  RESTRAINT  =         0.0000
 EKCMT  =      3414.7694  VIRIAL  =      6162.8448  VOLUME     =    126940.2904
                                                    Density    =         0.8975
 DV/DL  =      1186.7914
 ------------------------------------------------------------------------------

      R M S  F L U C T U A T I O N S

 NSTEP =     1000   TIME(PS) =     202.000  TEMP(K) =     2.66  PRESS =   140.3
 Etot   =        81.0315  EKtot   =        60.4354  EPtot      =        68.8867
 BOND   =         1.5831  ANGLE   =         1.2086  DIHED      =         0.0000
 1-4 NB =         0.0000  1-4 EEL =         0.0000  VDWAALS    =        76.3163
 EELEC  =       108.5983  EHBOND  =         0.0000  RESTRAINT  =         0.0000
 EKCMT  =        38.7235  VIRIAL  =       388.1919  VOLUME     =       641.1356
                                                    Density    =         0.0045
 DV/DL  =        21.0540
 ------------------------------------------------------------------------------

      DV/DL, AVERAGES OVER    1000 STEPS

 NSTEP =     1000   TIME(PS) =     202.000  TEMP(K) =     2.66  PRESS =     0.0
 Etot   =         0.0000  EKtot   =         0.0000  EPtot      =      1186.7914
 BOND   =         0.0000  ANGLE   =         0.0000  DIHED      =         0.0000
 1-4 NB =         0.0000  1-4 EEL =         0.0000  VDWAALS    =         0.0000
 EELEC  =      1186.7914  EHBOND  =         0.0000  RESTRAINT  =         0.0000
 EKCMT  =         0.0000  VIRIAL  =         0.0000  VOLUME     =         0.0000
                                                    Density    =         0.0000
 DV/DL  =      1186.7914
 ------------------------------------------------------------------------------

      A V E R A G E S   O V E R    1000 S T E P S

 NSTEP =     2000   TIME(PS) =     204.000  TEMP(K) =   300.29  PRESS =  -965.9
 Etot   =    -29512.0976  EKtot   =      6812.6389  EPtot      =    -36324.7366
 BOND   =         3.3200  ANGLE   =         7.9494  DIHED      =         0.0000
 1-4 NB =         0.0000  1-4 EEL =         0.0000  VDWAALS    =      5224.3863
 EELEC  =    -41560.3923  EHBOND  =         0.0000  RESTRAINT  =         0.0000
 EKCMT  =      3428.1566  VIRIAL  =      6029.9778  VOLUME     =    124691.5520
                                                    Density    =         0.9137
 DV/DL  =      1170.9102
 ------------------------------------------------------------------------------

      R M S  F L U C T U A T I O N S

 NSTEP =     2000   TIME(PS) =     204.000  TEMP(K) =     2.08  PRESS =   192.3
 Etot   =       123.2390  EKtot   =        47.0936  EPtot      =       110.5366
 BOND   =         2.3035  ANGLE   =         1.1301  DIHED      =         0.0000
 1-4 NB =         0.0000  1-4 EEL =         0.0000  VDWAALS    =       106.0817
 EELEC  =       182.1666  EHBOND  =         0.0000  RESTRAINT  =         0.0000
 EKCMT  =        34.3544  VIRIAL  =       531.7049  VOLUME     =       633.1293
                                                    Density    =         0.0046
 DV/DL  =        19.7122
 ------------------------------------------------------------------------------

      A V E R A G E S   O V E R    1000 S T E P S

 NSTEP =     2000   TIME(PS) =     204.000  TEMP(K) =   300.29  PRESS =  -965.9
 Etot   =    -29512.0976  EKtot   =      6812.6389  EPtot      =    -36324.7366
 BOND   =         3.3200  ANGLE   =         7.9494  DIHED      =         0.0000
 1-4 NB =         0.0000  1-4 EEL =         0.0000  VDWAALS    =      5224.3863
 EELEC  =    -41560.3923  EHBOND  =         0.0000  RESTRAINT  =         0.0000
 EKCMT  =      3428.1566  VIRIAL  =      6029.9778  VOLUME     =    124691.5520
                                                    Density    =         0.9137
 DV/DL  =      1170.9102
 ------------------------------------------------------------------------------

      R M S  F L U C T U A T I O N S

 NSTEP =     2000   TIME(PS) =     204.000  TEMP(K) =     2.08  PRESS =   192.3
 Etot   =       123.2390  EKtot   =        47.0936  EPtot      =       110.5366
 BOND   =         2.3035  ANGLE   =         1.1301  DIHED      =         0.0000
 1-4 NB =         0.0000  1-4 EEL =         0.0000  VDWAALS    =       106.0817
 EELEC  =       182.1666  EHBOND  =         0.0000  RESTRAINT  =         0.0000
 EKCMT  =        34.3544  VIRIAL  =       531.7049  VOLUME     =       633.1293
                                                    Density    =         0.0046
 DV/DL  =        19.7122
 ------------------------------------------------------------------------------

      DV/DL, AVERAGES OVER    1000 STEPS

 NSTEP =     2000   TIME(PS) =     204.000  TEMP(K) =     2.08  PRESS =     0.0
 Etot   =         0.0000  EKtot   =         0.0000  EPtot      =      1170.9102
 BOND   =         0.0000  ANGLE   =         0.0000  DIHED      =         0.0000
 1-4 NB =         0.0000  1-4 EEL =         0.0000  VDWAALS    =         0.0000
 EELEC  =      1170.9102  EHBOND  =         0.0000  RESTRAINT  =         0.0000
 EKCMT  =         0.0000  VIRIAL  =         0.0000  VOLUME     =         0.0000
                                                    Density    =         0.0000
 DV/DL  =      1170.9102
 ------------------------------------------------------------------------------

      A V E R A G E S   O V E R    1000 S T E P S

 NSTEP =   500000   TIME(PS) =    1200.000  TEMP(K) =   298.79  PRESS =   -44.7
 Etot   =    -30250.1294  EKtot   =      6778.5063  EPtot      =    -37028.6357
 BOND   =         3.0560  ANGLE   =         8.0853  DIHED      =         0.0000
 1-4 NB =         0.0000  1-4 EEL =         0.0000  VDWAALS    =      5505.1761
 EELEC  =    -42544.9531  EHBOND  =         0.0000  RESTRAINT  =         0.0000
 EKCMT  =      3401.4671  VIRIAL  =      3513.4150  VOLUME     =    115865.0912
                                                    Density    =         0.9833
 DV/DL  =      1168.9287
 ------------------------------------------------------------------------------

      R M S  F L U C T U A T I O N S

 NSTEP =   500000   TIME(PS) =    1200.000  TEMP(K) =     2.18  PRESS =   152.9
 Etot   =        47.2158  EKtot   =        49.4731  EPtot      =        47.2487
 BOND   =         1.5991  ANGLE   =         1.0339  DIHED      =         0.0000
 1-4 NB =         0.0000  1-4 EEL =         0.0000  VDWAALS    =        76.1680
 EELEC  =        92.4970  EHBOND  =         0.0000  RESTRAINT  =         0.0000
 EKCMT  =        33.4951  VIRIAL  =       382.1434  VOLUME     =        33.7174
                                                    Density    =         0.0003
 DV/DL  =        22.0582
 ------------------------------------------------------------------------------

      A V E R A G E S   O V E R    1000 S T E P S

 NSTEP =   500000   TIME(PS) =    1200.000  TEMP(K) =   298.79  PRESS =   -44.7
 Etot   =    -30250.1294  EKtot   =      6778.5063  EPtot      =    -37028.6357
 BOND   =         3.0560  ANGLE   =         8.0853  DIHED      =         0.0000
 1-4 NB =         0.0000  1-4 EEL =         0.0000  VDWAALS    =      5505.1761
 EELEC  =    -42544.9531  EHBOND  =         0.0000  RESTRAINT  =         0.0000
 EKCMT  =      3401.4671  VIRIAL  =      3513.4150  VOLUME     =    115865.0912
                                                    Density    =         0.9833
 DV/DL  =      1168.9287
 ------------------------------------------------------------------------------

      R M S  F L U C T U A T I O N S

 NSTEP =   500000   TIME(PS) =    1200.000  TEMP(K) =     2.18  PRESS =   152.9
 Etot   =        47.2158  EKtot   =        49.4731  EPtot      =        47.2487
 BOND   =         1.5991  ANGLE   =         1.0339  DIHED      =         0.0000
 1-4 NB =         0.0000  1-4 EEL =         0.0000  VDWAALS    =        76.1680
 EELEC  =        92.4970  EHBOND  =         0.0000  RESTRAINT  =         0.0000
 EKCMT  =        33.4951  VIRIAL  =       382.1434  VOLUME     =        33.7174
                                                    Density    =         0.0003
 DV/DL  =        22.0582
 ------------------------------------------------------------------------------

      DV/DL, AVERAGES OVER    1000 STEPS

 NSTEP =   500000   TIME(PS) =    1200.000  TEMP(K) =     2.18  PRESS =     0.0
 Etot   =         0.0000  EKtot   =         0.0000  EPtot      =      1168.9287
 BOND   =         0.0000  ANGLE   =         0.0000  DIHED      =         0.0000
 1-4 NB =         0.0000  1-4 EEL =         0.0000  VDWAALS    =         0.0000
 EELEC  =      1168.9287  EHBOND  =         0.0000  RESTRAINT  =         0.0000
 EKCMT  =         0.0000  VIRIAL  =         0.0000  VOLUME     =         0.0000
                                                    Density    =         0.0000
 DV/DL  =      1168.9287
 ------------------------------------------------------------------------------

      A V E R A G E S   O V E R  500000 S T E P S

 NSTEP =   500000   TIME(PS) =    1200.000  TEMP(K) =   299.88  PRESS =   -10.3
 Etot   =    -30164.1981  EKtot   =      6803.2205  EPtot      =    -36967.4186
 BOND   =         2.9092  ANGLE   =         8.0623  DIHED      =         0.0000
 1-4 NB =         0.0000  1-4 EEL =         0.0000  VDWAALS    =      5475.9100
 EELEC  =    -42454.3000  EHBOND  =         0.0000  RESTRAINT  =         0.0000
 EKCMT  =      3411.3702  VIRIAL  =      3438.5770  VOLUME     =    115649.2703
                                                    Density    =         0.9852
 DV/DL  =      1174.5127
 ------------------------------------------------------------------------------

      R M S  F L U C T U A T I O N S

 NSTEP =   500000   TIME(PS) =    1200.000  TEMP(K) =     2.80  PRESS =   197.4
 Etot   =       124.4713  EKtot   =        63.4950  EPtot      =       106.3511
 BOND   =         1.6956  ANGLE   =         1.1482  DIHED      =         0.0000
 1-4 NB =         0.0000  1-4 EEL =         0.0000  VDWAALS    =        94.8883
 EELEC  =       163.7998  EHBOND  =         0.0000  RESTRAINT  =         0.0000
 EKCMT  =        44.9753  VIRIAL  =       498.3299  VOLUME     =       830.3981
                                                    Density    =         0.0066
 DV/DL  =        24.2538
 ------------------------------------------------------------------------------

      A V E R A G E S   O V E R  500000 S T E P S

 NSTEP =   500000   TIME(PS) =    1200.000  TEMP(K) =   299.88  PRESS =   -10.3
 Etot   =    -30164.1981  EKtot   =      6803.2205  EPtot      =    -36967.4186
 BOND   =         2.9092  ANGLE   =         8.0623  DIHED      =         0.0000
 1-4 NB =         0.0000  1-4 EEL =         0.0000  VDWAALS    =      5475.9100
 EELEC  =    -42454.3000  EHBOND  =         0.0000  RESTRAINT  =         0.0000
 EKCMT  =      3411.3702  VIRIAL  =      3438.5770  VOLUME     =    115649.2703
                                                    Density    =         0.9852
 DV/DL  =      1174.5127
 ------------------------------------------------------------------------------

      R M S  F L U C T U A T I O N S

 NSTEP =   500000   TIME(PS) =    1200.000  TEMP(K) =     2.80  PRESS =   197.4
 Etot   =       124.4713  EKtot   =        63.4950  EPtot      =       106.3511
 BOND   =         1.6956  ANGLE   =         1.1482  DIHED      =         0.0000
 1-4 NB =         0.0000  1-4 EEL =         0.0000  VDWAALS    =        94.8883
 EELEC  =       163.7998  EHBOND  =         0.0000  RESTRAINT  =         0.0000
 EKCMT  =        44.9753  VIRIAL  =       498.3299  VOLUME     =       830.3981
                                                    Density    =         0.0066
 DV/DL  =        24.2538
 ------------------------------------------------------------------------------

      DV/DL, AVERAGES OVER  500000 STEPS

 NSTEP =   500000   TIME(PS) =    1200.000  TEMP(K) =     2.80  PRESS =     0.0
 Etot   =         0.0000  EKtot   =         0.0000  EPtot      =      1174.5127
 BOND   =         0.0000  ANGLE   =         0.0000  DIHED      =         0.0000
 1-4 NB =         0.0000  1-4 EEL =         0.0000  VDWAALS    =         0.0000
 EELEC  =      1174.5127  EHBOND  =         0.0000  RESTRAINT  =         0.0000
 EKCMT  =         0.0000  VIRIAL  =         0.0000  VOLUME     =         0.0000
                                                    Density    =         0.0000
 DV/DL  =      1174.5127
 ------------------------------------------------------------------------------
