-------------------------------------------------------
          Amber 20 PMEMD                              2020
          -------------------------------------------------------

  [-O]verwriting output

File Assignments:

 Here is the input file:

 &cntrl
   nstlim=500000, nscm=1000,
   ntx=5, irest=1, ntpr=1000,
   tempi=300.0, temp0=300.0, ntt=3, gamma_ln=2.0,
   ntp=1, pres0=1.01325, taup=5.0,
   ntb=2, igb=0, cut=10.0,
   dt=0.002, ig=-1,
   ntc=2, ntf=2,
   iwrap=0,
   ntwr=1000, ntwx=50000, ntave=1000,
   ioutfm=1, ntwv=-1,
   ifsc = 0, icfe=1,
   clambda=0.68392,
   timask1=':1',
   timask2=':2',
/

Note: ig = -1. Setting random seed to   430009 based on wallclock time in
      microseconds.

--------------------------------------------------------------------------------
   1.  RESOURCE   USE:
--------------------------------------------------------------------------------

 getting box info from netcdf restart file
 NATOM  =   11419 NTYPES =       6 NBONH =   11409 MBONA  =       8
 NTHETH =       0 MTHETA =      12 NPHIH =       0 MPHIA  =       0
 NHPARM =       0 NPARM  =       0 NNB   =   15234 NRES   =    3805
 NBONA  =       8 NTHETA =      12 NPHIA =       0 NUMBND =       3
 NUMANG =       1 NPTRA  =       0 NATYP =       4 NPHB   =       1
 IFBOX  =       2 NMXRS  =       5 IFCAP =       0 NEXTRA =       0
 NCOPY  =       0

     BOX TYPE: TRUNCATED OCTAHEDRON

--------------------------------------------------------------------------------
   2.  CONTROL  DATA  FOR  THE  RUN
--------------------------------------------------------------------------------

default_name

General flags:
     imin    =       0, nmropt  =       0

Nature and format of input:
     ntx     =       5, irest   =       1, ntrx    =       1

Nature and format of output:
     ntxo    =       2, ntpr    =    1000, ntrx    =       1, ntwr    =    1000
     iwrap   =       0, ntwx    =   50000, ntwv    =      -1, ntwe    =       0
     ioutfm  =       1, ntwprt  =       0, idecomp =       0, rbornstat=      0

Potential function:
     ntf     =       2, ntb     =       2, igb     =       0, nsnb    =      25
     ipol    =       0, gbsa    =       0, iesp    =       0
     dielc   =   1.00000, cut     =  10.00000, intdiel =   1.00000

Frozen or restrained atoms:
     ibelly  =       0, ntr     =       0

Molecular dynamics:
     nstlim  =    500000, nscm    =      1000, nrespa  =         1
     t       =   0.00000, dt      =   0.00200, vlimit  =  -1.00000

Langevin dynamics temperature regulation:
     ig      =  430009
     temp0   = 300.00000, tempi   = 300.00000, gamma_ln=   2.00000

Pressure regulation:
     ntp     =       1
     pres0   =   1.01325, comp    =  44.60000, taup    =   5.00000

SHAKE:
     ntc     =       2, jfastw  =       0
     tol     =   0.00001

Free energy options:
     icfe    =       1, ifsc    =       0, klambda =       1
     clambda =  0.6839, scalpha =  0.5000, scbeta  = 12.0000
     sceeorder =       2
     dynlmb =  0.0000 logdvdl =       0

Ewald parameters:
     verbose =       0, ew_type =       0, nbflag  =       1, use_pme =       1
     vdwmeth =       1, eedmeth =       1, netfrc  =       1
     Box X =   55.004   Box Y =   55.004   Box Z =   55.004
     Alpha =  109.471   Beta  =  109.471   Gamma =  109.471
     NFFT1 =   56       NFFT2 =   56       NFFT3 =   56
     Cutoff=   10.000   Tol   =0.100E-04
     Ewald Coefficient =  0.27511
     Interpolation order =    4
     TI Mask 1 :1; matches      5 atoms
     TI Mask 2 :2; matches      5 atoms
     TI region 1:   11414 atoms
     TI region 2:   11414 atoms
     Checking for mismatched coordinates.

--------------------------------------------------------------------------------
   3.  ATOMIC COORDINATES AND VELOCITIES
--------------------------------------------------------------------------------

default_name
 begin time read from input coords =   200.000 ps

 Number of triangulated 3-point waters found:     3803

     Sum of charges for TI region  1 =  -2.99999999
     Skip neutralizing charges...

     Sum of charges for TI region  2 =   0.00000000
     Skip neutralizing charges...

--------------------------------------------------------------------------------
   4.  RESULTS
 NSTEP =     1000   TIME(PS) =     202.000  TEMP(K) =   296.22  PRESS = -1001.0
 Etot   =    -28956.3222  EKtot   =      6720.2646  EPtot      =    -35676.5868
 BOND   =         3.6972  ANGLE   =         8.8363  DIHED      =         0.0000
 1-4 NB =         0.0000  1-4 EEL =         0.0000  VDWAALS    =      5148.0093
 EELEC  =    -40837.1297  EHBOND  =         0.0000  RESTRAINT  =         0.0000
 EKCMT  =      3351.9686  VIRIAL  =      6073.5922  VOLUME     =    125928.2708
                                                    Density    =         0.9047
 DV/DL  =       441.3126
 ------------------------------------------------------------------------------

      A V E R A G E S   O V E R    1000 S T E P S

 NSTEP =     1000   TIME(PS) =     202.000  TEMP(K) =   299.67  PRESS =  -959.7
 Etot   =    -28862.2668  EKtot   =      6798.5688  EPtot      =    -35660.8356
 BOND   =         2.2469  ANGLE   =         8.4821  DIHED      =         0.0000
 1-4 NB =         0.0000  1-4 EEL =         0.0000  VDWAALS    =      5185.2249
 EELEC  =    -40856.7896  EHBOND  =         0.0000  RESTRAINT  =         0.0000
 EKCMT  =      3398.2106  VIRIAL  =      6030.0650  VOLUME     =    127017.9281
                                                    Density    =         0.8970
 DV/DL  =       477.7495
 ------------------------------------------------------------------------------

      R M S  F L U C T U A T I O N S

 NSTEP =     1000   TIME(PS) =     202.000  TEMP(K) =     2.52  PRESS =   148.0
 Etot   =        98.3941  EKtot   =        57.0742  EPtot      =        84.2889
 BOND   =         1.2122  ANGLE   =         1.3349  DIHED      =         0.0000
 1-4 NB =         0.0000  1-4 EEL =         0.0000  VDWAALS    =        80.5571
 EELEC  =       122.9453  EHBOND  =         0.0000  RESTRAINT  =         0.0000
 EKCMT  =        41.4390  VIRIAL  =       399.4887  VOLUME     =       623.4017
                                                    Density    =         0.0044
 DV/DL  =        21.6647
 ------------------------------------------------------------------------------

      A V E R A G E S   O V E R    1000 S T E P S

 NSTEP =     1000   TIME(PS) =     202.000  TEMP(K) =   299.67  PRESS =  -959.7
 Etot   =    -28862.2668  EKtot   =      6798.5688  EPtot      =    -35660.8356
 BOND   =         2.2469  ANGLE   =         8.4821  DIHED      =         0.0000
 1-4 NB =         0.0000  1-4 EEL =         0.0000  VDWAALS    =      5185.2249
 EELEC  =    -40856.7896  EHBOND  =         0.0000  RESTRAINT  =         0.0000
 EKCMT  =      3398.2106  VIRIAL  =      6030.0650  VOLUME     =    127017.9281
                                                    Density    =         0.8970
 DV/DL  =       477.7495
 ------------------------------------------------------------------------------

      R M S  F L U C T U A T I O N S

 NSTEP =     1000   TIME(PS) =     202.000  TEMP(K) =     2.52  PRESS =   148.0
 Etot   =        98.3941  EKtot   =        57.0742  EPtot      =        84.2889
 BOND   =         1.2122  ANGLE   =         1.3349  DIHED      =         0.0000
 1-4 NB =         0.0000  1-4 EEL =         0.0000  VDWAALS    =        80.5571
 EELEC  =       122.9453  EHBOND  =         0.0000  RESTRAINT  =         0.0000
 EKCMT  =        41.4390  VIRIAL  =       399.4887  VOLUME     =       623.4017
                                                    Density    =         0.0044
 DV/DL  =        21.6647
 ------------------------------------------------------------------------------

      DV/DL, AVERAGES OVER    1000 STEPS

 NSTEP =     1000   TIME(PS) =     202.000  TEMP(K) =     2.52  PRESS =     0.0
 Etot   =         0.0000  EKtot   =         0.0000  EPtot      =       477.7495
 BOND   =         0.0000  ANGLE   =         0.0000  DIHED      =         0.0000
 1-4 NB =         0.0000  1-4 EEL =         0.0000  VDWAALS    =       -15.0535
 EELEC  =       492.8031  EHBOND  =         0.0000  RESTRAINT  =         0.0000
 EKCMT  =         0.0000  VIRIAL  =         0.0000  VOLUME     =         0.0000
                                                    Density    =         0.0000
 DV/DL  =       477.7495
 ------------------------------------------------------------------------------

      A V E R A G E S   O V E R    1000 S T E P S

 NSTEP =     2000   TIME(PS) =     204.000  TEMP(K) =   298.50  PRESS =  -802.0
 Etot   =    -29108.9006  EKtot   =      6772.0995  EPtot      =    -35881.0000
 BOND   =         1.9222  ANGLE   =         8.3277  DIHED      =         0.0000
 1-4 NB =         0.0000  1-4 EEL =         0.0000  VDWAALS    =      5274.4767
 EELEC  =    -41165.7266  EHBOND  =         0.0000  RESTRAINT  =         0.0000
 EKCMT  =      3401.3393  VIRIAL  =      5566.2516  VOLUME     =    124986.6846
                                                    Density    =         0.9116
 DV/DL  =       473.6481
 ------------------------------------------------------------------------------

      R M S  F L U C T U A T I O N S

 NSTEP =     2000   TIME(PS) =     204.000  TEMP(K) =     2.45  PRESS =   197.1
 Etot   =        76.4335  EKtot   =        55.6451  EPtot      =        83.1044
 BOND   =         1.0287  ANGLE   =         1.2143  DIHED      =         0.0000
 1-4 NB =         0.0000  1-4 EEL =         0.0000  VDWAALS    =       103.9730
 EELEC  =       144.2571  EHBOND  =         0.0000  RESTRAINT  =         0.0000
 EKCMT  =        38.6498  VIRIAL  =       529.4510  VOLUME     =       535.0077
                                                    Density    =         0.0039
 DV/DL  =        27.5638
 ------------------------------------------------------------------------------

      A V E R A G E S   O V E R    1000 S T E P S

 NSTEP =     2000   TIME(PS) =     204.000  TEMP(K) =   298.50  PRESS =  -802.0
 Etot   =    -29108.9006  EKtot   =      6772.0995  EPtot      =    -35881.0000
 BOND   =         1.9222  ANGLE   =         8.3277  DIHED      =         0.0000
 1-4 NB =         0.0000  1-4 EEL =         0.0000  VDWAALS    =      5274.4767
 EELEC  =    -41165.7266  EHBOND  =         0.0000  RESTRAINT  =         0.0000
 EKCMT  =      3401.3393  VIRIAL  =      5566.2516  VOLUME     =    124986.6846
                                                    Density    =         0.9116
 DV/DL  =       473.6481
 ------------------------------------------------------------------------------

      R M S  F L U C T U A T I O N S

 NSTEP =     2000   TIME(PS) =     204.000  TEMP(K) =     2.45  PRESS =   197.1
 Etot   =        76.4335  EKtot   =        55.6451  EPtot      =        83.1044
 BOND   =         1.0287  ANGLE   =         1.2143  DIHED      =         0.0000
 1-4 NB =         0.0000  1-4 EEL =         0.0000  VDWAALS    =       103.9730
 EELEC  =       144.2571  EHBOND  =         0.0000  RESTRAINT  =         0.0000
 EKCMT  =        38.6498  VIRIAL  =       529.4510  VOLUME     =       535.0077
                                                    Density    =         0.0039
 DV/DL  =        27.5638
 ------------------------------------------------------------------------------

      DV/DL, AVERAGES OVER    1000 STEPS

 NSTEP =     2000   TIME(PS) =     204.000  TEMP(K) =     2.45  PRESS =     0.0
 Etot   =         0.0000  EKtot   =         0.0000  EPtot      =       473.6481
 BOND   =         0.0000  ANGLE   =         0.0000  DIHED      =         0.0000
 1-4 NB =         0.0000  1-4 EEL =         0.0000  VDWAALS    =       -16.0653
 EELEC  =       489.7134  EHBOND  =         0.0000  RESTRAINT  =         0.0000
 EKCMT  =         0.0000  VIRIAL  =         0.0000  VOLUME     =         0.0000
                                                    Density    =         0.0000
 DV/DL  =       473.6481
 ------------------------------------------------------------------------------

      A V E R A G E S   O V E R    1000 S T E P S

 NSTEP =   500000   TIME(PS) =    1200.000  TEMP(K) =   298.09  PRESS =    24.2
 Etot   =    -29632.6579  EKtot   =      6762.6374  EPtot      =    -36395.2954
 BOND   =         1.0508  ANGLE   =         7.7855  DIHED      =         0.0000
 1-4 NB =         0.0000  1-4 EEL =         0.0000  VDWAALS    =      5473.9930
 EELEC  =    -41878.1246  EHBOND  =         0.0000  RESTRAINT  =         0.0000
 EKCMT  =      3381.1890  VIRIAL  =      3320.7994  VOLUME     =    115762.1098
                                                    Density    =         0.9842
 DV/DL  =       467.6207
 ------------------------------------------------------------------------------

      R M S  F L U C T U A T I O N S

 NSTEP =   500000   TIME(PS) =    1200.000  TEMP(K) =     2.39  PRESS =   159.6
 Etot   =        69.0932  EKtot   =        54.1586  EPtot      =        55.1682
 BOND   =         0.7154  ANGLE   =         0.8353  DIHED      =         0.0000
 1-4 NB =         0.0000  1-4 EEL =         0.0000  VDWAALS    =        81.9067
 EELEC  =       109.2630  EHBOND  =         0.0000  RESTRAINT  =         0.0000
 EKCMT  =        35.6015  VIRIAL  =       399.2396  VOLUME     =        38.2706
                                                    Density    =         0.0003
 DV/DL  =        23.4793
 ------------------------------------------------------------------------------

      A V E R A G E S   O V E R    1000 S T E P S

 NSTEP =   500000   TIME(PS) =    1200.000  TEMP(K) =   298.09  PRESS =    24.2
 Etot   =    -29632.6579  EKtot   =      6762.6374  EPtot      =    -36395.2954
 BOND   =         1.0508  ANGLE   =         7.7855  DIHED      =         0.0000
 1-4 NB =         0.0000  1-4 EEL =         0.0000  VDWAALS    =      5473.9930
 EELEC  =    -41878.1246  EHBOND  =         0.0000  RESTRAINT  =         0.0000
 EKCMT  =      3381.1890  VIRIAL  =      3320.7994  VOLUME     =    115762.1098
                                                    Density    =         0.9842
 DV/DL  =       467.6207
 ------------------------------------------------------------------------------

      R M S  F L U C T U A T I O N S

 NSTEP =   500000   TIME(PS) =    1200.000  TEMP(K) =     2.39  PRESS =   159.6
 Etot   =        69.0932  EKtot   =        54.1586  EPtot      =        55.1682
 BOND   =         0.7154  ANGLE   =         0.8353  DIHED      =         0.0000
 1-4 NB =         0.0000  1-4 EEL =         0.0000  VDWAALS    =        81.9067
 EELEC  =       109.2630  EHBOND  =         0.0000  RESTRAINT  =         0.0000
 EKCMT  =        35.6015  VIRIAL  =       399.2396  VOLUME     =        38.2706
                                                    Density    =         0.0003
 DV/DL  =        23.4793
 ------------------------------------------------------------------------------

      DV/DL, AVERAGES OVER    1000 STEPS

 NSTEP =   500000   TIME(PS) =    1200.000  TEMP(K) =     2.39  PRESS =     0.0
 Etot   =         0.0000  EKtot   =         0.0000  EPtot      =       467.6207
 BOND   =         0.0000  ANGLE   =         0.0000  DIHED      =         0.0000
 1-4 NB =         0.0000  1-4 EEL =         0.0000  VDWAALS    =       -13.3684
 EELEC  =       480.9891  EHBOND  =         0.0000  RESTRAINT  =         0.0000
 EKCMT  =         0.0000  VIRIAL  =         0.0000  VOLUME     =         0.0000
                                                    Density    =         0.0000
 DV/DL  =       467.6207
 ------------------------------------------------------------------------------

      A V E R A G E S   O V E R  500000 S T E P S

 NSTEP =   500000   TIME(PS) =    1200.000  TEMP(K) =   300.12  PRESS =   -10.3
 Etot   =    -29547.7027  EKtot   =      6808.7477  EPtot      =    -36356.4504
 BOND   =         1.2619  ANGLE   =         7.8221  DIHED      =         0.0000
 1-4 NB =         0.0000  1-4 EEL =         0.0000  VDWAALS    =      5428.3440
 EELEC  =    -41793.8783  EHBOND  =         0.0000  RESTRAINT  =         0.0000
 EKCMT  =      3414.5002  VIRIAL  =      3441.8502  VOLUME     =    115858.3580
                                                    Density    =         0.9834
 DV/DL  =       474.2096
 ------------------------------------------------------------------------------

      R M S  F L U C T U A T I O N S

 NSTEP =   500000   TIME(PS) =    1200.000  TEMP(K) =     2.79  PRESS =   192.6
 Etot   =       118.8846  EKtot   =        63.2735  EPtot      =       101.9284
 BOND   =         0.8901  ANGLE   =         0.9863  DIHED      =         0.0000
 1-4 NB =         0.0000  1-4 EEL =         0.0000  VDWAALS    =        93.7647
 EELEC  =       159.0744  EHBOND  =         0.0000  RESTRAINT  =         0.0000
 EKCMT  =        45.3911  VIRIAL  =       485.8460  VOLUME     =       859.7017
                                                    Density    =         0.0068
 DV/DL  =        26.0008
 ------------------------------------------------------------------------------

      A V E R A G E S   O V E R  500000 S T E P S

 NSTEP =   500000   TIME(PS) =    1200.000  TEMP(K) =   300.12  PRESS =   -10.3
 Etot   =    -29547.7027  EKtot   =      6808.7477  EPtot      =    -36356.4504
 BOND   =         1.2619  ANGLE   =         7.8221  DIHED      =         0.0000
 1-4 NB =         0.0000  1-4 EEL =         0.0000  VDWAALS    =      5428.3440
 EELEC  =    -41793.8783  EHBOND  =         0.0000  RESTRAINT  =         0.0000
 EKCMT  =      3414.5002  VIRIAL  =      3441.8502  VOLUME     =    115858.3580
                                                    Density    =         0.9834
 DV/DL  =       474.2096
 ------------------------------------------------------------------------------

      R M S  F L U C T U A T I O N S

 NSTEP =   500000   TIME(PS) =    1200.000  TEMP(K) =     2.79  PRESS =   192.6
 Etot   =       118.8846  EKtot   =        63.2735  EPtot      =       101.9284
 BOND   =         0.8901  ANGLE   =         0.9863  DIHED      =         0.0000
 1-4 NB =         0.0000  1-4 EEL =         0.0000  VDWAALS    =        93.7647
 EELEC  =       159.0744  EHBOND  =         0.0000  RESTRAINT  =         0.0000
 EKCMT  =        45.3911  VIRIAL  =       485.8460  VOLUME     =       859.7017
                                                    Density    =         0.0068
 DV/DL  =        26.0008
 ------------------------------------------------------------------------------

      DV/DL, AVERAGES OVER  500000 STEPS

 NSTEP =   500000   TIME(PS) =    1200.000  TEMP(K) =     2.79  PRESS =     0.0
 Etot   =         0.0000  EKtot   =         0.0000  EPtot      =       474.2096
 BOND   =         0.0000  ANGLE   =         0.0000  DIHED      =         0.0000
 1-4 NB =         0.0000  1-4 EEL =         0.0000  VDWAALS    =       -14.0923
 EELEC  =       488.3019  EHBOND  =         0.0000  RESTRAINT  =         0.0000
 EKCMT  =         0.0000  VIRIAL  =         0.0000  VOLUME     =         0.0000
                                                    Density    =         0.0000
 DV/DL  =       474.2096
 ------------------------------------------------------------------------------
