-------------------------------------------------------
          Amber 20 PMEMD                              2020
          -------------------------------------------------------

  [-O]verwriting output

File Assignments:

 Here is the input file:

 &cntrl
   nstlim=500000, nscm=1000,
   ntx=1, irest=0, ntpr=1000,
   tempi=300.0, temp0=300.0, ntt=3, gamma_ln=2.0,
   ntb=1, igb=0, cut=10.0,
   dt=0.002, ig=-1,
   ntc=2, ntf=2,
   iwrap=0,
   ntwr=1000, ntwx=50000, ntave=1000,
   ioutfm=1, ntwv=-1,
   ifsc = 0, icfe=1,
   clambda=0.20634,
   timask1=':1',
   timask2=':2', crgmask = ':2',
/

Note: ig = -1. Setting random seed to   995634 based on wallclock time in
      microseconds.

--------------------------------------------------------------------------------
   1.  RESOURCE   USE:
--------------------------------------------------------------------------------

 getting box info from netcdf restart file
 NATOM  =      10 NTYPES =       4 NBONH =       0 MBONA  =       8
 NTHETH =       0 MTHETA =      12 NPHIH =       0 MPHIA  =       0
 NHPARM =       0 NPARM  =       0 NNB   =      22 NRES   =       2
 NBONA  =       8 NTHETA =      12 NPHIA =       0 NUMBND =       1
 NUMANG =       1 NPTRA  =       0 NATYP =       4 NPHB   =       1
 IFBOX  =       2 NMXRS  =       5 IFCAP =       0 NEXTRA =       0
 NCOPY  =       0

     BOX TYPE: TRUNCATED OCTAHEDRON

--------------------------------------------------------------------------------
   2.  CONTROL  DATA  FOR  THE  RUN
--------------------------------------------------------------------------------

default_name

General flags:
     imin    =       0, nmropt  =       0

Nature and format of input:
     ntx     =       1, irest   =       0, ntrx    =       1

Nature and format of output:
     ntxo    =       2, ntpr    =    1000, ntrx    =       1, ntwr    =    1000
     iwrap   =       0, ntwx    =   50000, ntwv    =      -1, ntwe    =       0
     ioutfm  =       1, ntwprt  =       0, idecomp =       0, rbornstat=      0

Potential function:
     ntf     =       2, ntb     =       1, igb     =       0, nsnb    =      25
     ipol    =       0, gbsa    =       0, iesp    =       0
     dielc   =   1.00000, cut     =  10.00000, intdiel =   1.00000

Frozen or restrained atoms:
     ibelly  =       0, ntr     =       0

Molecular dynamics:
     nstlim  =    500000, nscm    =      1000, nrespa  =         1
     t       =   0.00000, dt      =   0.00200, vlimit  =  -1.00000

Langevin dynamics temperature regulation:
     ig      =  995634
     temp0   = 300.00000, tempi   = 300.00000, gamma_ln=   2.00000

SHAKE:
     ntc     =       2, jfastw  =       0
     tol     =   0.00001

Free energy options:
     icfe    =       1, ifsc    =       0, klambda =       1
     clambda =  0.2063, scalpha =  0.5000, scbeta  = 12.0000
     sceeorder =       2
     dynlmb =  0.0000 logdvdl =       0

Ewald parameters:
     verbose =       0, ew_type =       0, nbflag  =       1, use_pme =       1
     vdwmeth =       1, eedmeth =       1, netfrc  =       1
     Box X =   55.004   Box Y =   55.004   Box Z =   55.004
     Alpha =  109.471   Beta  =  109.471   Gamma =  109.471
     NFFT1 =   56       NFFT2 =   56       NFFT3 =   56
     Cutoff=   10.000   Tol   =0.100E-04
     Ewald Coefficient =  0.27511
     Interpolation order =    4
     TI Mask 1 :1; matches      5 atoms
     TI Mask 2 :2; matches      5 atoms
     TI region 1:       5 atoms
     TI region 2:       5 atoms
Removing charge of       1.4352 from atom       6
Removing charge of      -1.1088 from atom       7
Removing charge of      -1.1088 from atom       8
Removing charge of      -1.1088 from atom       9
Removing charge of      -1.1088 from atom      10
Total charge of  -2.99999999 removed from       5 atoms
     Checking for mismatched coordinates.

--------------------------------------------------------------------------------
   3.  ATOMIC COORDINATES AND VELOCITIES
--------------------------------------------------------------------------------

default_name
 begin time read from input coords =     0.000 ps

 Number of triangulated 3-point waters found:        0

     Sum of charges for TI region  1 =  -2.99999999
     Skip neutralizing charges...

     Sum of charges for TI region  2 =   0.00000000
     Skip neutralizing charges...

--------------------------------------------------------------------------------
   4.  RESULTS
 NSTEP =        0   TIME(PS) =       0.000  TEMP(K) =   248.97  PRESS =     0.0
 Etot   =       -57.8701  EKtot   =         3.7107  EPtot      =       -61.5808
 BOND   =         0.0000  ANGLE   =         6.2592  DIHED      =         0.0000
 1-4 NB =         0.0000  1-4 EEL =         0.0000  VDWAALS    =        -0.0003
 EELEC  =       -67.8397  EHBOND  =         0.0000  RESTRAINT  =         0.0000
 DV/DL  =        85.4771
 ------------------------------------------------------------------------------

      A V E R A G E S   O V E R    1000 S T E P S

 NSTEP =     1000   TIME(PS) =       2.000  TEMP(K) =   286.47  PRESS =     0.0
 Etot   =       -54.8283  EKtot   =         4.2695  EPtot      =       -59.0978
 BOND   =         1.1114  ANGLE   =         7.6177  DIHED      =         0.0000
 1-4 NB =         0.0000  1-4 EEL =         0.0000  VDWAALS    =        -0.0003
 EELEC  =       -67.8267  EHBOND  =         0.0000  RESTRAINT  =         0.0000
 DV/DL  =        85.4606
 ------------------------------------------------------------------------------

      R M S  F L U C T U A T I O N S

 NSTEP =     1000   TIME(PS) =       2.000  TEMP(K) =   107.59  PRESS =     0.0
 Etot   =         1.8647  EKtot   =         1.6034  EPtot      =         0.9901
 BOND   =         0.7127  ANGLE   =         0.7978  DIHED      =         0.0000
 1-4 NB =         0.0000  1-4 EEL =         0.0000  VDWAALS    =         0.0000
 EELEC  =         0.0095  EHBOND  =         0.0000  RESTRAINT  =         0.0000
 DV/DL  =         0.0120
 ------------------------------------------------------------------------------

      A V E R A G E S   O V E R    1000 S T E P S

 NSTEP =     1000   TIME(PS) =       2.000  TEMP(K) =   286.47  PRESS =     0.0
 Etot   =       -54.8283  EKtot   =         4.2695  EPtot      =       -59.0978
 BOND   =         1.1114  ANGLE   =         7.6177  DIHED      =         0.0000
 1-4 NB =         0.0000  1-4 EEL =         0.0000  VDWAALS    =        -0.0003
 EELEC  =       -67.8267  EHBOND  =         0.0000  RESTRAINT  =         0.0000
 DV/DL  =        85.4606
 ------------------------------------------------------------------------------

      R M S  F L U C T U A T I O N S

 NSTEP =     1000   TIME(PS) =       2.000  TEMP(K) =   107.59  PRESS =     0.0
 Etot   =         1.8647  EKtot   =         1.6034  EPtot      =         0.9901
 BOND   =         0.7127  ANGLE   =         0.7978  DIHED      =         0.0000
 1-4 NB =         0.0000  1-4 EEL =         0.0000  VDWAALS    =         0.0000
 EELEC  =         0.0095  EHBOND  =         0.0000  RESTRAINT  =         0.0000
 DV/DL  =         0.0120
 ------------------------------------------------------------------------------

      DV/DL, AVERAGES OVER    1000 STEPS

 NSTEP =     1000   TIME(PS) =       2.000  TEMP(K) =   107.59  PRESS =     0.0
 Etot   =         0.0000  EKtot   =         0.0000  EPtot      =        85.4606
 BOND   =         0.0000  ANGLE   =         0.0000  DIHED      =         0.0000
 1-4 NB =         0.0000  1-4 EEL =         0.0000  VDWAALS    =         0.0000
 EELEC  =        85.4606  EHBOND  =         0.0000  RESTRAINT  =         0.0000
 DV/DL  =        85.4606
 ------------------------------------------------------------------------------

      A V E R A G E S   O V E R    1000 S T E P S

 NSTEP =     2000   TIME(PS) =       4.000  TEMP(K) =   293.08  PRESS =     0.0
 Etot   =       -54.3308  EKtot   =         4.3680  EPtot      =       -58.6988
 BOND   =         1.3742  ANGLE   =         7.7536  DIHED      =         0.0000
 1-4 NB =         0.0000  1-4 EEL =         0.0000  VDWAALS    =        -0.0003
 EELEC  =       -67.8263  EHBOND  =         0.0000  RESTRAINT  =         0.0000
 DV/DL  =        85.4602
 ------------------------------------------------------------------------------

      R M S  F L U C T U A T I O N S

 NSTEP =     2000   TIME(PS) =       4.000  TEMP(K) =    82.08  PRESS =     0.0
 Etot   =         1.3518  EKtot   =         1.2233  EPtot      =         1.0951
 BOND   =         0.8876  ANGLE   =         0.7561  DIHED      =         0.0000
 1-4 NB =         0.0000  1-4 EEL =         0.0000  VDWAALS    =         0.0000
 EELEC  =         0.0076  EHBOND  =         0.0000  RESTRAINT  =         0.0000
 DV/DL  =         0.0095
 ------------------------------------------------------------------------------

      A V E R A G E S   O V E R    1000 S T E P S

 NSTEP =     2000   TIME(PS) =       4.000  TEMP(K) =   293.08  PRESS =     0.0
 Etot   =       -54.3308  EKtot   =         4.3680  EPtot      =       -58.6988
 BOND   =         1.3742  ANGLE   =         7.7536  DIHED      =         0.0000
 1-4 NB =         0.0000  1-4 EEL =         0.0000  VDWAALS    =        -0.0003
 EELEC  =       -67.8263  EHBOND  =         0.0000  RESTRAINT  =         0.0000
 DV/DL  =        85.4602
 ------------------------------------------------------------------------------

      R M S  F L U C T U A T I O N S

 NSTEP =     2000   TIME(PS) =       4.000  TEMP(K) =    82.08  PRESS =     0.0
 Etot   =         1.3518  EKtot   =         1.2233  EPtot      =         1.0951
 BOND   =         0.8876  ANGLE   =         0.7561  DIHED      =         0.0000
 1-4 NB =         0.0000  1-4 EEL =         0.0000  VDWAALS    =         0.0000
 EELEC  =         0.0076  EHBOND  =         0.0000  RESTRAINT  =         0.0000
 DV/DL  =         0.0095
 ------------------------------------------------------------------------------

      DV/DL, AVERAGES OVER    1000 STEPS

 NSTEP =     2000   TIME(PS) =       4.000  TEMP(K) =    82.08  PRESS =     0.0
 Etot   =         0.0000  EKtot   =         0.0000  EPtot      =        85.4602
 BOND   =         0.0000  ANGLE   =         0.0000  DIHED      =         0.0000
 1-4 NB =         0.0000  1-4 EEL =         0.0000  VDWAALS    =         0.0000
 EELEC  =        85.4602  EHBOND  =         0.0000  RESTRAINT  =         0.0000
 DV/DL  =        85.4602
 ------------------------------------------------------------------------------

      A V E R A G E S   O V E R    1000 S T E P S

 NSTEP =   500000   TIME(PS) =    1000.000  TEMP(K) =   270.76  PRESS =     0.0
 Etot   =       -54.5390  EKtot   =         4.0355  EPtot      =       -58.5745
 BOND   =         1.7790  ANGLE   =         7.4703  DIHED      =         0.0000
 1-4 NB =         0.0000  1-4 EEL =         0.0000  VDWAALS    =        -0.0003
 EELEC  =       -67.8236  EHBOND  =         0.0000  RESTRAINT  =         0.0000
 DV/DL  =        85.4567
 ------------------------------------------------------------------------------

      R M S  F L U C T U A T I O N S

 NSTEP =   500000   TIME(PS) =    1000.000  TEMP(K) =    84.03  PRESS =     0.0
 Etot   =         1.4966  EKtot   =         1.2523  EPtot      =         1.1820
 BOND   =         0.9674  ANGLE   =         0.7078  DIHED      =         0.0000
 1-4 NB =         0.0000  1-4 EEL =         0.0000  VDWAALS    =         0.0000
 EELEC  =         0.0069  EHBOND  =         0.0000  RESTRAINT  =         0.0000
 DV/DL  =         0.0087
 ------------------------------------------------------------------------------

      A V E R A G E S   O V E R    1000 S T E P S

 NSTEP =   500000   TIME(PS) =    1000.000  TEMP(K) =   270.76  PRESS =     0.0
 Etot   =       -54.5390  EKtot   =         4.0355  EPtot      =       -58.5745
 BOND   =         1.7790  ANGLE   =         7.4703  DIHED      =         0.0000
 1-4 NB =         0.0000  1-4 EEL =         0.0000  VDWAALS    =        -0.0003
 EELEC  =       -67.8236  EHBOND  =         0.0000  RESTRAINT  =         0.0000
 DV/DL  =        85.4567
 ------------------------------------------------------------------------------

      R M S  F L U C T U A T I O N S

 NSTEP =   500000   TIME(PS) =    1000.000  TEMP(K) =    84.03  PRESS =     0.0
 Etot   =         1.4966  EKtot   =         1.2523  EPtot      =         1.1820
 BOND   =         0.9674  ANGLE   =         0.7078  DIHED      =         0.0000
 1-4 NB =         0.0000  1-4 EEL =         0.0000  VDWAALS    =         0.0000
 EELEC  =         0.0069  EHBOND  =         0.0000  RESTRAINT  =         0.0000
 DV/DL  =         0.0087
 ------------------------------------------------------------------------------

      DV/DL, AVERAGES OVER    1000 STEPS

 NSTEP =   500000   TIME(PS) =    1000.000  TEMP(K) =    84.03  PRESS =     0.0
 Etot   =         0.0000  EKtot   =         0.0000  EPtot      =        85.4567
 BOND   =         0.0000  ANGLE   =         0.0000  DIHED      =         0.0000
 1-4 NB =         0.0000  1-4 EEL =         0.0000  VDWAALS    =         0.0000
 EELEC  =        85.4567  EHBOND  =         0.0000  RESTRAINT  =         0.0000
 DV/DL  =        85.4567
 ------------------------------------------------------------------------------

      A V E R A G E S   O V E R  500000 S T E P S

 NSTEP =   500000   TIME(PS) =    1000.000  TEMP(K) =   299.57  PRESS =     0.0
 Etot   =       -54.3521  EKtot   =         4.4647  EPtot      =       -58.8169
 BOND   =         1.2511  ANGLE   =         7.7575  DIHED      =         0.0000
 1-4 NB =         0.0000  1-4 EEL =         0.0000  VDWAALS    =        -0.0003
 EELEC  =       -67.8252  EHBOND  =         0.0000  RESTRAINT  =         0.0000
 DV/DL  =        85.4587
 ------------------------------------------------------------------------------

      R M S  F L U C T U A T I O N S

 NSTEP =   500000   TIME(PS) =    1000.000  TEMP(K) =   108.45  PRESS =     0.0
 Etot   =         2.0484  EKtot   =         1.6163  EPtot      =         1.2900
 BOND   =         0.8890  ANGLE   =         0.9391  DIHED      =         0.0000
 1-4 NB =         0.0000  1-4 EEL =         0.0000  VDWAALS    =         0.0000
 EELEC  =         0.0088  EHBOND  =         0.0000  RESTRAINT  =         0.0000
 DV/DL  =         0.0111
 ------------------------------------------------------------------------------

      A V E R A G E S   O V E R  500000 S T E P S

 NSTEP =   500000   TIME(PS) =    1000.000  TEMP(K) =   299.57  PRESS =     0.0
 Etot   =       -54.3521  EKtot   =         4.4647  EPtot      =       -58.8169
 BOND   =         1.2511  ANGLE   =         7.7575  DIHED      =         0.0000
 1-4 NB =         0.0000  1-4 EEL =         0.0000  VDWAALS    =        -0.0003
 EELEC  =       -67.8252  EHBOND  =         0.0000  RESTRAINT  =         0.0000
 DV/DL  =        85.4587
 ------------------------------------------------------------------------------

      R M S  F L U C T U A T I O N S

 NSTEP =   500000   TIME(PS) =    1000.000  TEMP(K) =   108.45  PRESS =     0.0
 Etot   =         2.0484  EKtot   =         1.6163  EPtot      =         1.2900
 BOND   =         0.8890  ANGLE   =         0.9391  DIHED      =         0.0000
 1-4 NB =         0.0000  1-4 EEL =         0.0000  VDWAALS    =         0.0000
 EELEC  =         0.0088  EHBOND  =         0.0000  RESTRAINT  =         0.0000
 DV/DL  =         0.0111
 ------------------------------------------------------------------------------

      DV/DL, AVERAGES OVER  500000 STEPS

 NSTEP =   500000   TIME(PS) =    1000.000  TEMP(K) =   108.45  PRESS =     0.0
 Etot   =         0.0000  EKtot   =         0.0000  EPtot      =        85.4587
 BOND   =         0.0000  ANGLE   =         0.0000  DIHED      =         0.0000
 1-4 NB =         0.0000  1-4 EEL =         0.0000  VDWAALS    =         0.0000
 EELEC  =        85.4587  EHBOND  =         0.0000  RESTRAINT  =         0.0000
 DV/DL  =        85.4587
 ------------------------------------------------------------------------------
