-------------------------------------------------------
          Amber 20 PMEMD                              2020
          -------------------------------------------------------

  [-O]verwriting output

File Assignments:

 Here is the input file:

 &cntrl
   nstlim=500000, nscm=1000,
   ntx=1, irest=0, ntpr=1000,
   tempi=300.0, temp0=300.0, ntt=3, gamma_ln=2.0,
   ntb=1, igb=0, cut=10.0,
   dt=0.002, ig=-1,
   ntc=2, ntf=2,
   iwrap=0,
   ntwr=1000, ntwx=50000, ntave=1000,
   ioutfm=1, ntwv=-1,
   ifsc = 0, icfe=1,
   clambda=0.00922,
   timask1=':1',
   timask2=':2', crgmask = ':2',
/

Note: ig = -1. Setting random seed to   143488 based on wallclock time in
      microseconds.

--------------------------------------------------------------------------------
   1.  RESOURCE   USE:
--------------------------------------------------------------------------------

 getting box info from netcdf restart file
 NATOM  =      10 NTYPES =       4 NBONH =       0 MBONA  =       8
 NTHETH =       0 MTHETA =      12 NPHIH =       0 MPHIA  =       0
 NHPARM =       0 NPARM  =       0 NNB   =      22 NRES   =       2
 NBONA  =       8 NTHETA =      12 NPHIA =       0 NUMBND =       1
 NUMANG =       1 NPTRA  =       0 NATYP =       4 NPHB   =       1
 IFBOX  =       2 NMXRS  =       5 IFCAP =       0 NEXTRA =       0
 NCOPY  =       0

     BOX TYPE: TRUNCATED OCTAHEDRON

--------------------------------------------------------------------------------
   2.  CONTROL  DATA  FOR  THE  RUN
--------------------------------------------------------------------------------

default_name

General flags:
     imin    =       0, nmropt  =       0

Nature and format of input:
     ntx     =       1, irest   =       0, ntrx    =       1

Nature and format of output:
     ntxo    =       2, ntpr    =    1000, ntrx    =       1, ntwr    =    1000
     iwrap   =       0, ntwx    =   50000, ntwv    =      -1, ntwe    =       0
     ioutfm  =       1, ntwprt  =       0, idecomp =       0, rbornstat=      0

Potential function:
     ntf     =       2, ntb     =       1, igb     =       0, nsnb    =      25
     ipol    =       0, gbsa    =       0, iesp    =       0
     dielc   =   1.00000, cut     =  10.00000, intdiel =   1.00000

Frozen or restrained atoms:
     ibelly  =       0, ntr     =       0

Molecular dynamics:
     nstlim  =    500000, nscm    =      1000, nrespa  =         1
     t       =   0.00000, dt      =   0.00200, vlimit  =  -1.00000

Langevin dynamics temperature regulation:
     ig      =  143488
     temp0   = 300.00000, tempi   = 300.00000, gamma_ln=   2.00000

SHAKE:
     ntc     =       2, jfastw  =       0
     tol     =   0.00001

Free energy options:
     icfe    =       1, ifsc    =       0, klambda =       1
     clambda =  0.0092, scalpha =  0.5000, scbeta  = 12.0000
     sceeorder =       2
     dynlmb =  0.0000 logdvdl =       0

Ewald parameters:
     verbose =       0, ew_type =       0, nbflag  =       1, use_pme =       1
     vdwmeth =       1, eedmeth =       1, netfrc  =       1
     Box X =   55.004   Box Y =   55.004   Box Z =   55.004
     Alpha =  109.471   Beta  =  109.471   Gamma =  109.471
     NFFT1 =   56       NFFT2 =   56       NFFT3 =   56
     Cutoff=   10.000   Tol   =0.100E-04
     Ewald Coefficient =  0.27511
     Interpolation order =    4
     TI Mask 1 :1; matches      5 atoms
     TI Mask 2 :2; matches      5 atoms
     TI region 1:       5 atoms
     TI region 2:       5 atoms
Removing charge of       1.4352 from atom       6
Removing charge of      -1.1088 from atom       7
Removing charge of      -1.1088 from atom       8
Removing charge of      -1.1088 from atom       9
Removing charge of      -1.1088 from atom      10
Total charge of  -2.99999999 removed from       5 atoms
     Checking for mismatched coordinates.

--------------------------------------------------------------------------------
   3.  ATOMIC COORDINATES AND VELOCITIES
--------------------------------------------------------------------------------

default_name
 begin time read from input coords =     0.000 ps

 Number of triangulated 3-point waters found:        0

     Sum of charges for TI region  1 =  -2.99999999
     Skip neutralizing charges...

     Sum of charges for TI region  2 =   0.00000000
     Skip neutralizing charges...

--------------------------------------------------------------------------------
   4.  RESULTS
 NSTEP =        0   TIME(PS) =       0.000  TEMP(K) =   202.60  PRESS =     0.0
 Etot   =       -75.4124  EKtot   =         3.0196  EPtot      =       -78.4320
 BOND   =         0.0000  ANGLE   =         6.2592  DIHED      =         0.0000
 1-4 NB =         0.0000  1-4 EEL =         0.0000  VDWAALS    =        -0.0003
 EELEC  =       -84.6909  EHBOND  =         0.0000  RESTRAINT  =         0.0000
 DV/DL  =        85.4790
 ------------------------------------------------------------------------------

      A V E R A G E S   O V E R    1000 S T E P S

 NSTEP =     1000   TIME(PS) =       2.000  TEMP(K) =   229.62  PRESS =     0.0
 Etot   =       -72.7186  EKtot   =         3.4222  EPtot      =       -76.1408
 BOND   =         1.1561  ANGLE   =         7.3794  DIHED      =         0.0000
 1-4 NB =         0.0000  1-4 EEL =         0.0000  VDWAALS    =        -0.0003
 EELEC  =       -84.6761  EHBOND  =         0.0000  RESTRAINT  =         0.0000
 DV/DL  =        85.4640
 ------------------------------------------------------------------------------

      R M S  F L U C T U A T I O N S

 NSTEP =     1000   TIME(PS) =       2.000  TEMP(K) =   109.74  PRESS =     0.0
 Etot   =         2.3891  EKtot   =         1.6355  EPtot      =         1.3823
 BOND   =         0.8288  ANGLE   =         0.8846  DIHED      =         0.0000
 1-4 NB =         0.0000  1-4 EEL =         0.0000  VDWAALS    =         0.0000
 EELEC  =         0.0153  EHBOND  =         0.0000  RESTRAINT  =         0.0000
 DV/DL  =         0.0154
 ------------------------------------------------------------------------------

      A V E R A G E S   O V E R    1000 S T E P S

 NSTEP =     1000   TIME(PS) =       2.000  TEMP(K) =   229.62  PRESS =     0.0
 Etot   =       -72.7186  EKtot   =         3.4222  EPtot      =       -76.1408
 BOND   =         1.1561  ANGLE   =         7.3794  DIHED      =         0.0000
 1-4 NB =         0.0000  1-4 EEL =         0.0000  VDWAALS    =        -0.0003
 EELEC  =       -84.6761  EHBOND  =         0.0000  RESTRAINT  =         0.0000
 DV/DL  =        85.4640
 ------------------------------------------------------------------------------

      R M S  F L U C T U A T I O N S

 NSTEP =     1000   TIME(PS) =       2.000  TEMP(K) =   109.74  PRESS =     0.0
 Etot   =         2.3891  EKtot   =         1.6355  EPtot      =         1.3823
 BOND   =         0.8288  ANGLE   =         0.8846  DIHED      =         0.0000
 1-4 NB =         0.0000  1-4 EEL =         0.0000  VDWAALS    =         0.0000
 EELEC  =         0.0153  EHBOND  =         0.0000  RESTRAINT  =         0.0000
 DV/DL  =         0.0154
 ------------------------------------------------------------------------------

      DV/DL, AVERAGES OVER    1000 STEPS

 NSTEP =     1000   TIME(PS) =       2.000  TEMP(K) =   109.74  PRESS =     0.0
 Etot   =         0.0000  EKtot   =         0.0000  EPtot      =        85.4640
 BOND   =         0.0000  ANGLE   =         0.0000  DIHED      =         0.0000
 1-4 NB =         0.0000  1-4 EEL =         0.0000  VDWAALS    =         0.0000
 EELEC  =        85.4640  EHBOND  =         0.0000  RESTRAINT  =         0.0000
 DV/DL  =        85.4640
 ------------------------------------------------------------------------------

      A V E R A G E S   O V E R    1000 S T E P S

 NSTEP =     2000   TIME(PS) =       4.000  TEMP(K) =   285.49  PRESS =     0.0
 Etot   =       -70.9706  EKtot   =         4.2550  EPtot      =       -75.2255
 BOND   =         1.4540  ANGLE   =         7.9859  DIHED      =         0.0000
 1-4 NB =         0.0000  1-4 EEL =         0.0000  VDWAALS    =        -0.0003
 EELEC  =       -84.6652  EHBOND  =         0.0000  RESTRAINT  =         0.0000
 DV/DL  =        85.4531
 ------------------------------------------------------------------------------

      R M S  F L U C T U A T I O N S

 NSTEP =     2000   TIME(PS) =       4.000  TEMP(K) =    92.42  PRESS =     0.0
 Etot   =         1.6249  EKtot   =         1.3774  EPtot      =         1.4451
 BOND   =         1.0564  ANGLE   =         0.9413  DIHED      =         0.0000
 1-4 NB =         0.0000  1-4 EEL =         0.0000  VDWAALS    =         0.0000
 EELEC  =         0.0102  EHBOND  =         0.0000  RESTRAINT  =         0.0000
 DV/DL  =         0.0103
 ------------------------------------------------------------------------------

      A V E R A G E S   O V E R    1000 S T E P S

 NSTEP =     2000   TIME(PS) =       4.000  TEMP(K) =   285.49  PRESS =     0.0
 Etot   =       -70.9706  EKtot   =         4.2550  EPtot      =       -75.2255
 BOND   =         1.4540  ANGLE   =         7.9859  DIHED      =         0.0000
 1-4 NB =         0.0000  1-4 EEL =         0.0000  VDWAALS    =        -0.0003
 EELEC  =       -84.6652  EHBOND  =         0.0000  RESTRAINT  =         0.0000
 DV/DL  =        85.4531
 ------------------------------------------------------------------------------

      R M S  F L U C T U A T I O N S

 NSTEP =     2000   TIME(PS) =       4.000  TEMP(K) =    92.42  PRESS =     0.0
 Etot   =         1.6249  EKtot   =         1.3774  EPtot      =         1.4451
 BOND   =         1.0564  ANGLE   =         0.9413  DIHED      =         0.0000
 1-4 NB =         0.0000  1-4 EEL =         0.0000  VDWAALS    =         0.0000
 EELEC  =         0.0102  EHBOND  =         0.0000  RESTRAINT  =         0.0000
 DV/DL  =         0.0103
 ------------------------------------------------------------------------------

      DV/DL, AVERAGES OVER    1000 STEPS

 NSTEP =     2000   TIME(PS) =       4.000  TEMP(K) =    92.42  PRESS =     0.0
 Etot   =         0.0000  EKtot   =         0.0000  EPtot      =        85.4531
 BOND   =         0.0000  ANGLE   =         0.0000  DIHED      =         0.0000
 1-4 NB =         0.0000  1-4 EEL =         0.0000  VDWAALS    =         0.0000
 EELEC  =        85.4531  EHBOND  =         0.0000  RESTRAINT  =         0.0000
 DV/DL  =        85.4531
 ------------------------------------------------------------------------------

      A V E R A G E S   O V E R    1000 S T E P S

 NSTEP =   500000   TIME(PS) =    1000.000  TEMP(K) =   362.66  PRESS =     0.0
 Etot   =       -69.7831  EKtot   =         5.4050  EPtot      =       -75.1881
 BOND   =         1.3956  ANGLE   =         8.0856  DIHED      =         0.0000
 1-4 NB =         0.0000  1-4 EEL =         0.0000  VDWAALS    =        -0.0003
 EELEC  =       -84.6690  EHBOND  =         0.0000  RESTRAINT  =         0.0000
 DV/DL  =        85.4569
 ------------------------------------------------------------------------------

      R M S  F L U C T U A T I O N S

 NSTEP =   500000   TIME(PS) =    1000.000  TEMP(K) =   102.24  PRESS =     0.0
 Etot   =         1.6369  EKtot   =         1.5237  EPtot      =         1.4573
 BOND   =         0.9476  ANGLE   =         1.1045  DIHED      =         0.0000
 1-4 NB =         0.0000  1-4 EEL =         0.0000  VDWAALS    =         0.0000
 EELEC  =         0.0097  EHBOND  =         0.0000  RESTRAINT  =         0.0000
 DV/DL  =         0.0098
 ------------------------------------------------------------------------------

      A V E R A G E S   O V E R    1000 S T E P S

 NSTEP =   500000   TIME(PS) =    1000.000  TEMP(K) =   362.66  PRESS =     0.0
 Etot   =       -69.7831  EKtot   =         5.4050  EPtot      =       -75.1881
 BOND   =         1.3956  ANGLE   =         8.0856  DIHED      =         0.0000
 1-4 NB =         0.0000  1-4 EEL =         0.0000  VDWAALS    =        -0.0003
 EELEC  =       -84.6690  EHBOND  =         0.0000  RESTRAINT  =         0.0000
 DV/DL  =        85.4569
 ------------------------------------------------------------------------------

      R M S  F L U C T U A T I O N S

 NSTEP =   500000   TIME(PS) =    1000.000  TEMP(K) =   102.24  PRESS =     0.0
 Etot   =         1.6369  EKtot   =         1.5237  EPtot      =         1.4573
 BOND   =         0.9476  ANGLE   =         1.1045  DIHED      =         0.0000
 1-4 NB =         0.0000  1-4 EEL =         0.0000  VDWAALS    =         0.0000
 EELEC  =         0.0097  EHBOND  =         0.0000  RESTRAINT  =         0.0000
 DV/DL  =         0.0098
 ------------------------------------------------------------------------------

      DV/DL, AVERAGES OVER    1000 STEPS

 NSTEP =   500000   TIME(PS) =    1000.000  TEMP(K) =   102.24  PRESS =     0.0
 Etot   =         0.0000  EKtot   =         0.0000  EPtot      =        85.4569
 BOND   =         0.0000  ANGLE   =         0.0000  DIHED      =         0.0000
 1-4 NB =         0.0000  1-4 EEL =         0.0000  VDWAALS    =         0.0000
 EELEC  =        85.4569  EHBOND  =         0.0000  RESTRAINT  =         0.0000
 DV/DL  =        85.4569
 ------------------------------------------------------------------------------

      A V E R A G E S   O V E R  500000 S T E P S

 NSTEP =   500000   TIME(PS) =    1000.000  TEMP(K) =   301.53  PRESS =     0.0
 Etot   =       -71.1069  EKtot   =         4.4940  EPtot      =       -75.6009
 BOND   =         1.2608  ANGLE   =         7.8093  DIHED      =         0.0000
 1-4 NB =         0.0000  1-4 EEL =         0.0000  VDWAALS    =        -0.0003
 EELEC  =       -84.6708  EHBOND  =         0.0000  RESTRAINT  =         0.0000
 DV/DL  =        85.4587
 ------------------------------------------------------------------------------

      R M S  F L U C T U A T I O N S

 NSTEP =   500000   TIME(PS) =    1000.000  TEMP(K) =   108.64  PRESS =     0.0
 Etot   =         2.0508  EKtot   =         1.6192  EPtot      =         1.3073
 BOND   =         0.8977  ANGLE   =         0.9678  DIHED      =         0.0000
 1-4 NB =         0.0000  1-4 EEL =         0.0000  VDWAALS    =         0.0000
 EELEC  =         0.0109  EHBOND  =         0.0000  RESTRAINT  =         0.0000
 DV/DL  =         0.0110
 ------------------------------------------------------------------------------

      A V E R A G E S   O V E R  500000 S T E P S

 NSTEP =   500000   TIME(PS) =    1000.000  TEMP(K) =   301.53  PRESS =     0.0
 Etot   =       -71.1069  EKtot   =         4.4940  EPtot      =       -75.6009
 BOND   =         1.2608  ANGLE   =         7.8093  DIHED      =         0.0000
 1-4 NB =         0.0000  1-4 EEL =         0.0000  VDWAALS    =        -0.0003
 EELEC  =       -84.6708  EHBOND  =         0.0000  RESTRAINT  =         0.0000
 DV/DL  =        85.4587
 ------------------------------------------------------------------------------

      R M S  F L U C T U A T I O N S

 NSTEP =   500000   TIME(PS) =    1000.000  TEMP(K) =   108.64  PRESS =     0.0
 Etot   =         2.0508  EKtot   =         1.6192  EPtot      =         1.3073
 BOND   =         0.8977  ANGLE   =         0.9678  DIHED      =         0.0000
 1-4 NB =         0.0000  1-4 EEL =         0.0000  VDWAALS    =         0.0000
 EELEC  =         0.0109  EHBOND  =         0.0000  RESTRAINT  =         0.0000
 DV/DL  =         0.0110
 ------------------------------------------------------------------------------

      DV/DL, AVERAGES OVER  500000 STEPS

 NSTEP =   500000   TIME(PS) =    1000.000  TEMP(K) =   108.64  PRESS =     0.0
 Etot   =         0.0000  EKtot   =         0.0000  EPtot      =        85.4587
 BOND   =         0.0000  ANGLE   =         0.0000  DIHED      =         0.0000
 1-4 NB =         0.0000  1-4 EEL =         0.0000  VDWAALS    =         0.0000
 EELEC  =        85.4587  EHBOND  =         0.0000  RESTRAINT  =         0.0000
 DV/DL  =        85.4587
 ------------------------------------------------------------------------------
