-------------------------------------------------------
          Amber 20 PMEMD                              2020
          -------------------------------------------------------

  [-O]verwriting output

File Assignments:

 Here is the input file:

 &cntrl
   nstlim=500000, nscm=1000,
   ntx=5, irest=1, ntpr=1000,
   tempi=300.0, temp0=300.0, ntt=3, gamma_ln=2.0,
   ntp=1, pres0=1.01325, taup=5.0,
   ntb=2, igb=0, cut=10.0,
   dt=0.002, ig=-1,
   ntc=2, ntf=2,
   iwrap=0,
   ntwr=1000, ntwx=50000, ntave=1000,
   ioutfm=1, ntwv=-1,
   ifsc = 0, icfe=1,
   clambda=0.68392,
   timask1=':1',
   timask2=':2', crgmask = ':2',
/

Note: ig = -1. Setting random seed to   556079 based on wallclock time in
      microseconds.

--------------------------------------------------------------------------------
   1.  RESOURCE   USE:
--------------------------------------------------------------------------------

 getting box info from netcdf restart file
 NATOM  =   11419 NTYPES =       4 NBONH =   11409 MBONA  =       8
 NTHETH =       0 MTHETA =      12 NPHIH =       0 MPHIA  =       0
 NHPARM =       0 NPARM  =       0 NNB   =   15234 NRES   =    3805
 NBONA  =       8 NTHETA =      12 NPHIA =       0 NUMBND =       3
 NUMANG =       1 NPTRA  =       0 NATYP =       4 NPHB   =       1
 IFBOX  =       2 NMXRS  =       5 IFCAP =       0 NEXTRA =       0
 NCOPY  =       0

     BOX TYPE: TRUNCATED OCTAHEDRON

--------------------------------------------------------------------------------
   2.  CONTROL  DATA  FOR  THE  RUN
--------------------------------------------------------------------------------

default_name

General flags:
     imin    =       0, nmropt  =       0

Nature and format of input:
     ntx     =       5, irest   =       1, ntrx    =       1

Nature and format of output:
     ntxo    =       2, ntpr    =    1000, ntrx    =       1, ntwr    =    1000
     iwrap   =       0, ntwx    =   50000, ntwv    =      -1, ntwe    =       0
     ioutfm  =       1, ntwprt  =       0, idecomp =       0, rbornstat=      0

Potential function:
     ntf     =       2, ntb     =       2, igb     =       0, nsnb    =      25
     ipol    =       0, gbsa    =       0, iesp    =       0
     dielc   =   1.00000, cut     =  10.00000, intdiel =   1.00000

Frozen or restrained atoms:
     ibelly  =       0, ntr     =       0

Molecular dynamics:
     nstlim  =    500000, nscm    =      1000, nrespa  =         1
     t       =   0.00000, dt      =   0.00200, vlimit  =  -1.00000

Langevin dynamics temperature regulation:
     ig      =  556079
     temp0   = 300.00000, tempi   = 300.00000, gamma_ln=   2.00000

Pressure regulation:
     ntp     =       1
     pres0   =   1.01325, comp    =  44.60000, taup    =   5.00000

SHAKE:
     ntc     =       2, jfastw  =       0
     tol     =   0.00001

Free energy options:
     icfe    =       1, ifsc    =       0, klambda =       1
     clambda =  0.6839, scalpha =  0.5000, scbeta  = 12.0000
     sceeorder =       2
     dynlmb =  0.0000 logdvdl =       0

Ewald parameters:
     verbose =       0, ew_type =       0, nbflag  =       1, use_pme =       1
     vdwmeth =       1, eedmeth =       1, netfrc  =       1
     Box X =   55.004   Box Y =   55.004   Box Z =   55.004
     Alpha =  109.471   Beta  =  109.471   Gamma =  109.471
     NFFT1 =   56       NFFT2 =   56       NFFT3 =   56
     Cutoff=   10.000   Tol   =0.100E-04
     Ewald Coefficient =  0.27511
     Interpolation order =    4
     TI Mask 1 :1; matches      5 atoms
     TI Mask 2 :2; matches      5 atoms
     TI region 1:   11414 atoms
     TI region 2:   11414 atoms
Removing charge of       1.4352 from atom       6
Removing charge of      -1.1088 from atom       7
Removing charge of      -1.1088 from atom       8
Removing charge of      -1.1088 from atom       9
Removing charge of      -1.1088 from atom      10
Total charge of  -2.99999999 removed from       5 atoms
     Checking for mismatched coordinates.

--------------------------------------------------------------------------------
   3.  ATOMIC COORDINATES AND VELOCITIES
--------------------------------------------------------------------------------

default_name
 begin time read from input coords =   200.000 ps

 Number of triangulated 3-point waters found:     3803

     Sum of charges for TI region  1 =  -2.99999999
     Skip neutralizing charges...

     Sum of charges for TI region  2 =   0.00000000
     Skip neutralizing charges...

--------------------------------------------------------------------------------
   4.  RESULTS
 NSTEP =     1000   TIME(PS) =     202.000  TEMP(K) =   304.82  PRESS =  -641.5
 Etot   =    -28714.3063  EKtot   =      6915.4155  EPtot      =    -35629.7218
 BOND   =         2.1959  ANGLE   =         8.1029  DIHED      =         0.0000
 1-4 NB =         0.0000  1-4 EEL =         0.0000  VDWAALS    =      5238.5299
 EELEC  =    -40878.5504  EHBOND  =         0.0000  RESTRAINT  =         0.0000
 EKCMT  =      3514.4188  VIRIAL  =      5263.7971  VOLUME     =    126296.5198
                                                    Density    =         0.9021
 DV/DL  =       451.7403
 ------------------------------------------------------------------------------

      A V E R A G E S   O V E R    1000 S T E P S

 NSTEP =     1000   TIME(PS) =     202.000  TEMP(K) =   301.60  PRESS =  -795.7
 Etot   =    -28806.3255  EKtot   =      6842.2966  EPtot      =    -35648.6221
 BOND   =         1.3180  ANGLE   =         7.7579  DIHED      =         0.0000
 1-4 NB =         0.0000  1-4 EEL =         0.0000  VDWAALS    =      5229.6097
 EELEC  =    -40887.3077  EHBOND  =         0.0000  RESTRAINT  =         0.0000
 EKCMT  =      3435.7048  VIRIAL  =      5620.9026  VOLUME     =    127150.0086
                                                    Density    =         0.8961
 DV/DL  =       428.2317
 ------------------------------------------------------------------------------

      R M S  F L U C T U A T I O N S

 NSTEP =     1000   TIME(PS) =     202.000  TEMP(K) =     2.61  PRESS =   179.6
 Etot   =        72.1846  EKtot   =        59.3176  EPtot      =        66.4615
 BOND   =         1.0178  ANGLE   =         0.8225  DIHED      =         0.0000
 1-4 NB =         0.0000  1-4 EEL =         0.0000  VDWAALS    =        94.4277
 EELEC  =       133.1306  EHBOND  =         0.0000  RESTRAINT  =         0.0000
 EKCMT  =        43.6210  VIRIAL  =       484.6360  VOLUME     =       524.8015
                                                    Density    =         0.0037
 DV/DL  =        23.4981
 ------------------------------------------------------------------------------

      A V E R A G E S   O V E R    1000 S T E P S

 NSTEP =     1000   TIME(PS) =     202.000  TEMP(K) =   301.60  PRESS =  -795.7
 Etot   =    -28806.3255  EKtot   =      6842.2966  EPtot      =    -35648.6221
 BOND   =         1.3180  ANGLE   =         7.7579  DIHED      =         0.0000
 1-4 NB =         0.0000  1-4 EEL =         0.0000  VDWAALS    =      5229.6097
 EELEC  =    -40887.3077  EHBOND  =         0.0000  RESTRAINT  =         0.0000
 EKCMT  =      3435.7048  VIRIAL  =      5620.9026  VOLUME     =    127150.0086
                                                    Density    =         0.8961
 DV/DL  =       428.2317
 ------------------------------------------------------------------------------

      R M S  F L U C T U A T I O N S

 NSTEP =     1000   TIME(PS) =     202.000  TEMP(K) =     2.61  PRESS =   179.6
 Etot   =        72.1846  EKtot   =        59.3176  EPtot      =        66.4615
 BOND   =         1.0178  ANGLE   =         0.8225  DIHED      =         0.0000
 1-4 NB =         0.0000  1-4 EEL =         0.0000  VDWAALS    =        94.4277
 EELEC  =       133.1306  EHBOND  =         0.0000  RESTRAINT  =         0.0000
 EKCMT  =        43.6210  VIRIAL  =       484.6360  VOLUME     =       524.8015
                                                    Density    =         0.0037
 DV/DL  =        23.4981
 ------------------------------------------------------------------------------

      DV/DL, AVERAGES OVER    1000 STEPS

 NSTEP =     1000   TIME(PS) =     202.000  TEMP(K) =     2.61  PRESS =     0.0
 Etot   =         0.0000  EKtot   =         0.0000  EPtot      =       428.2317
 BOND   =         0.0000  ANGLE   =         0.0000  DIHED      =         0.0000
 1-4 NB =         0.0000  1-4 EEL =         0.0000  VDWAALS    =         0.0000
 EELEC  =       428.2317  EHBOND  =         0.0000  RESTRAINT  =         0.0000
 EKCMT  =         0.0000  VIRIAL  =         0.0000  VOLUME     =         0.0000
                                                    Density    =         0.0000
 DV/DL  =       428.2317
 ------------------------------------------------------------------------------

      A V E R A G E S   O V E R    1000 S T E P S

 NSTEP =     2000   TIME(PS) =     204.000  TEMP(K) =   301.68  PRESS =  -680.1
 Etot   =    -28831.3096  EKtot   =      6844.1349  EPtot      =    -35675.4445
 BOND   =         1.3169  ANGLE   =         7.4969  DIHED      =         0.0000
 1-4 NB =         0.0000  1-4 EEL =         0.0000  VDWAALS    =      5245.0898
 EELEC  =    -40929.3482  EHBOND  =         0.0000  RESTRAINT  =         0.0000
 EKCMT  =      3432.5546  VIRIAL  =      5275.9970  VOLUME     =    125550.6632
                                                    Density    =         0.9075
 DV/DL  =       430.1777
 ------------------------------------------------------------------------------

      R M S  F L U C T U A T I O N S

 NSTEP =     2000   TIME(PS) =     204.000  TEMP(K) =     2.84  PRESS =   164.0
 Etot   =       106.4471  EKtot   =        64.3602  EPtot      =        78.1670
 BOND   =         0.6555  ANGLE   =         0.7909  DIHED      =         0.0000
 1-4 NB =         0.0000  1-4 EEL =         0.0000  VDWAALS    =        89.7043
 EELEC  =       124.3114  EHBOND  =         0.0000  RESTRAINT  =         0.0000
 EKCMT  =        45.8619  VIRIAL  =       443.2680  VOLUME     =       441.4880
                                                    Density    =         0.0032
 DV/DL  =        24.3993
 ------------------------------------------------------------------------------

      A V E R A G E S   O V E R    1000 S T E P S

 NSTEP =     2000   TIME(PS) =     204.000  TEMP(K) =   301.68  PRESS =  -680.1
 Etot   =    -28831.3096  EKtot   =      6844.1349  EPtot      =    -35675.4445
 BOND   =         1.3169  ANGLE   =         7.4969  DIHED      =         0.0000
 1-4 NB =         0.0000  1-4 EEL =         0.0000  VDWAALS    =      5245.0898
 EELEC  =    -40929.3482  EHBOND  =         0.0000  RESTRAINT  =         0.0000
 EKCMT  =      3432.5546  VIRIAL  =      5275.9970  VOLUME     =    125550.6632
                                                    Density    =         0.9075
 DV/DL  =       430.1777
 ------------------------------------------------------------------------------

      R M S  F L U C T U A T I O N S

 NSTEP =     2000   TIME(PS) =     204.000  TEMP(K) =     2.84  PRESS =   164.0
 Etot   =       106.4471  EKtot   =        64.3602  EPtot      =        78.1670
 BOND   =         0.6555  ANGLE   =         0.7909  DIHED      =         0.0000
 1-4 NB =         0.0000  1-4 EEL =         0.0000  VDWAALS    =        89.7043
 EELEC  =       124.3114  EHBOND  =         0.0000  RESTRAINT  =         0.0000
 EKCMT  =        45.8619  VIRIAL  =       443.2680  VOLUME     =       441.4880
                                                    Density    =         0.0032
 DV/DL  =        24.3993
 ------------------------------------------------------------------------------

      DV/DL, AVERAGES OVER    1000 STEPS

 NSTEP =     2000   TIME(PS) =     204.000  TEMP(K) =     2.84  PRESS =     0.0
 Etot   =         0.0000  EKtot   =         0.0000  EPtot      =       430.1777
 BOND   =         0.0000  ANGLE   =         0.0000  DIHED      =         0.0000
 1-4 NB =         0.0000  1-4 EEL =         0.0000  VDWAALS    =         0.0000
 EELEC  =       430.1777  EHBOND  =         0.0000  RESTRAINT  =         0.0000
 EKCMT  =         0.0000  VIRIAL  =         0.0000  VOLUME     =         0.0000
                                                    Density    =         0.0000
 DV/DL  =       430.1777
 ------------------------------------------------------------------------------

      A V E R A G E S   O V E R    1000 S T E P S

 NSTEP =   500000   TIME(PS) =    1200.000  TEMP(K) =   301.77  PRESS =   -38.0
 Etot   =    -29466.1101  EKtot   =      6846.2104  EPtot      =    -36312.3205
 BOND   =         1.5031  ANGLE   =         8.4713  DIHED      =         0.0000
 1-4 NB =         0.0000  1-4 EEL =         0.0000  VDWAALS    =      5368.7876
 EELEC  =    -41691.0824  EHBOND  =         0.0000  RESTRAINT  =         0.0000
 EKCMT  =      3429.1186  VIRIAL  =      3523.9678  VOLUME     =    115632.6170
                                                    Density    =         0.9853
 DV/DL  =       436.6407
 ------------------------------------------------------------------------------

      R M S  F L U C T U A T I O N S

 NSTEP =   500000   TIME(PS) =    1200.000  TEMP(K) =     2.29  PRESS =   139.9
 Etot   =        31.1310  EKtot   =        51.8647  EPtot      =        53.7207
 BOND   =         0.8564  ANGLE   =         1.3199  DIHED      =         0.0000
 1-4 NB =         0.0000  1-4 EEL =         0.0000  VDWAALS    =        67.4361
 EELEC  =        87.0176  EHBOND  =         0.0000  RESTRAINT  =         0.0000
 EKCMT  =        43.3302  VIRIAL  =       351.0964  VOLUME     =        21.1454
                                                    Density    =         0.0002
 DV/DL  =        29.0464
 ------------------------------------------------------------------------------

      A V E R A G E S   O V E R    1000 S T E P S

 NSTEP =   500000   TIME(PS) =    1200.000  TEMP(K) =   301.77  PRESS =   -38.0
 Etot   =    -29466.1101  EKtot   =      6846.2104  EPtot      =    -36312.3205
 BOND   =         1.5031  ANGLE   =         8.4713  DIHED      =         0.0000
 1-4 NB =         0.0000  1-4 EEL =         0.0000  VDWAALS    =      5368.7876
 EELEC  =    -41691.0824  EHBOND  =         0.0000  RESTRAINT  =         0.0000
 EKCMT  =      3429.1186  VIRIAL  =      3523.9678  VOLUME     =    115632.6170
                                                    Density    =         0.9853
 DV/DL  =       436.6407
 ------------------------------------------------------------------------------

      R M S  F L U C T U A T I O N S

 NSTEP =   500000   TIME(PS) =    1200.000  TEMP(K) =     2.29  PRESS =   139.9
 Etot   =        31.1310  EKtot   =        51.8647  EPtot      =        53.7207
 BOND   =         0.8564  ANGLE   =         1.3199  DIHED      =         0.0000
 1-4 NB =         0.0000  1-4 EEL =         0.0000  VDWAALS    =        67.4361
 EELEC  =        87.0176  EHBOND  =         0.0000  RESTRAINT  =         0.0000
 EKCMT  =        43.3302  VIRIAL  =       351.0964  VOLUME     =        21.1454
                                                    Density    =         0.0002
 DV/DL  =        29.0464
 ------------------------------------------------------------------------------

      DV/DL, AVERAGES OVER    1000 STEPS

 NSTEP =   500000   TIME(PS) =    1200.000  TEMP(K) =     2.29  PRESS =     0.0
 Etot   =         0.0000  EKtot   =         0.0000  EPtot      =       436.6407
 BOND   =         0.0000  ANGLE   =         0.0000  DIHED      =         0.0000
 1-4 NB =         0.0000  1-4 EEL =         0.0000  VDWAALS    =         0.0000
 EELEC  =       436.6407  EHBOND  =         0.0000  RESTRAINT  =         0.0000
 EKCMT  =         0.0000  VIRIAL  =         0.0000  VOLUME     =         0.0000
                                                    Density    =         0.0000
 DV/DL  =       436.6407
 ------------------------------------------------------------------------------

      A V E R A G E S   O V E R  500000 S T E P S

 NSTEP =   500000   TIME(PS) =    1200.000  TEMP(K) =   300.72  PRESS =   -10.5
 Etot   =    -29496.5948  EKtot   =      6822.4108  EPtot      =    -36319.0056
 BOND   =         1.2464  ANGLE   =         7.7601  DIHED      =         0.0000
 1-4 NB =         0.0000  1-4 EEL =         0.0000  VDWAALS    =      5414.9721
 EELEC  =    -41742.9841  EHBOND  =         0.0000  RESTRAINT  =         0.0000
 EKCMT  =      3425.4267  VIRIAL  =      3453.1718  VOLUME     =    116033.9898
                                                    Density    =         0.9819
 DV/DL  =       435.3573
 ------------------------------------------------------------------------------

      R M S  F L U C T U A T I O N S

 NSTEP =   500000   TIME(PS) =    1200.000  TEMP(K) =     2.79  PRESS =   190.1
 Etot   =       123.4946  EKtot   =        63.3947  EPtot      =       105.6689
 BOND   =         0.8792  ANGLE   =         0.9583  DIHED      =         0.0000
 1-4 NB =         0.0000  1-4 EEL =         0.0000  VDWAALS    =        93.0624
 EELEC  =       160.6097  EHBOND  =         0.0000  RESTRAINT  =         0.0000
 EKCMT  =        45.4012  VIRIAL  =       479.8720  VOLUME     =       899.0873
                                                    Density    =         0.0071
 DV/DL  =        27.1925
 ------------------------------------------------------------------------------

      A V E R A G E S   O V E R  500000 S T E P S

 NSTEP =   500000   TIME(PS) =    1200.000  TEMP(K) =   300.72  PRESS =   -10.5
 Etot   =    -29496.5948  EKtot   =      6822.4108  EPtot      =    -36319.0056
 BOND   =         1.2464  ANGLE   =         7.7601  DIHED      =         0.0000
 1-4 NB =         0.0000  1-4 EEL =         0.0000  VDWAALS    =      5414.9721
 EELEC  =    -41742.9841  EHBOND  =         0.0000  RESTRAINT  =         0.0000
 EKCMT  =      3425.4267  VIRIAL  =      3453.1718  VOLUME     =    116033.9898
                                                    Density    =         0.9819
 DV/DL  =       435.3573
 ------------------------------------------------------------------------------

      R M S  F L U C T U A T I O N S

 NSTEP =   500000   TIME(PS) =    1200.000  TEMP(K) =     2.79  PRESS =   190.1
 Etot   =       123.4946  EKtot   =        63.3947  EPtot      =       105.6689
 BOND   =         0.8792  ANGLE   =         0.9583  DIHED      =         0.0000
 1-4 NB =         0.0000  1-4 EEL =         0.0000  VDWAALS    =        93.0624
 EELEC  =       160.6097  EHBOND  =         0.0000  RESTRAINT  =         0.0000
 EKCMT  =        45.4012  VIRIAL  =       479.8720  VOLUME     =       899.0873
                                                    Density    =         0.0071
 DV/DL  =        27.1925
 ------------------------------------------------------------------------------

      DV/DL, AVERAGES OVER  500000 STEPS

 NSTEP =   500000   TIME(PS) =    1200.000  TEMP(K) =     2.79  PRESS =     0.0
 Etot   =         0.0000  EKtot   =         0.0000  EPtot      =       435.3573
 BOND   =         0.0000  ANGLE   =         0.0000  DIHED      =         0.0000
 1-4 NB =         0.0000  1-4 EEL =         0.0000  VDWAALS    =         0.0000
 EELEC  =       435.3573  EHBOND  =         0.0000  RESTRAINT  =         0.0000
 EKCMT  =         0.0000  VIRIAL  =         0.0000  VOLUME     =         0.0000
                                                    Density    =         0.0000
 DV/DL  =       435.3573
 ------------------------------------------------------------------------------
