-------------------------------------------------------
          Amber 20 PMEMD                              2020
          -------------------------------------------------------

  [-O]verwriting output

File Assignments:

 Here is the input file:

 &cntrl
   nstlim=1000000, nscm=1000,
   ntx=1, irest=0, ntpr=1000,
   tempi=300.0, temp0=300.0, ntt=3, gamma_ln=2.0,
   ntb=1, igb=0, cut=10.0,
   dt=0.001, ig=-1,
   ntc=1, ntf=1,
   iwrap=0,
   ntwr=1000, ntwx=50000, ntave=1000,
   ioutfm=1, ntwv=-1,
   ifsc = 0, icfe=1,
   clambda=0.79366,
   timask1=':1',
   timask2=':2', crgmask = ':2',
/

Note: ig = -1. Setting random seed to   692920 based on wallclock time in
      microseconds.

--------------------------------------------------------------------------------
   1.  RESOURCE   USE:
--------------------------------------------------------------------------------

 getting box info from netcdf restart file
 NATOM  =      10 NTYPES =       4 NBONH =       0 MBONA  =       8
 NTHETH =       0 MTHETA =      12 NPHIH =       0 MPHIA  =       0
 NHPARM =       0 NPARM  =       0 NNB   =      22 NRES   =       2
 NBONA  =       8 NTHETA =      12 NPHIA =       0 NUMBND =       1
 NUMANG =       1 NPTRA  =       0 NATYP =       4 NPHB   =       1
 IFBOX  =       2 NMXRS  =       5 IFCAP =       0 NEXTRA =       0
 NCOPY  =       0

     BOX TYPE: TRUNCATED OCTAHEDRON

--------------------------------------------------------------------------------
   2.  CONTROL  DATA  FOR  THE  RUN
--------------------------------------------------------------------------------

default_name

General flags:
     imin    =       0, nmropt  =       0

Nature and format of input:
     ntx     =       1, irest   =       0, ntrx    =       1

Nature and format of output:
     ntxo    =       2, ntpr    =    1000, ntrx    =       1, ntwr    =    1000
     iwrap   =       0, ntwx    =   50000, ntwv    =      -1, ntwe    =       0
     ioutfm  =       1, ntwprt  =       0, idecomp =       0, rbornstat=      0

Potential function:
     ntf     =       1, ntb     =       1, igb     =       0, nsnb    =      25
     ipol    =       0, gbsa    =       0, iesp    =       0
     dielc   =   1.00000, cut     =  10.00000, intdiel =   1.00000

Frozen or restrained atoms:
     ibelly  =       0, ntr     =       0

Molecular dynamics:
     nstlim  =   1000000, nscm    =      1000, nrespa  =         1
     t       =   0.00000, dt      =   0.00100, vlimit  =  -1.00000

Langevin dynamics temperature regulation:
     ig      =  692920
     temp0   = 300.00000, tempi   = 300.00000, gamma_ln=   2.00000

Free energy options:
     icfe    =       1, ifsc    =       0, klambda =       1
     clambda =  0.7937, scalpha =  0.5000, scbeta  = 12.0000
     sceeorder =       2
     dynlmb =  0.0000 logdvdl =       0

Ewald parameters:
     verbose =       0, ew_type =       0, nbflag  =       1, use_pme =       1
     vdwmeth =       1, eedmeth =       1, netfrc  =       1
     Box X =   55.004   Box Y =   55.004   Box Z =   55.004
     Alpha =  109.471   Beta  =  109.471   Gamma =  109.471
     NFFT1 =   56       NFFT2 =   56       NFFT3 =   56
     Cutoff=   10.000   Tol   =0.100E-04
     Ewald Coefficient =  0.27511
     Interpolation order =    4
     TI Mask 1 :1; matches      5 atoms
     TI Mask 2 :2; matches      5 atoms
     TI region 1:       5 atoms
     TI region 2:       5 atoms
Removing charge of       1.4352 from atom       6
Removing charge of      -1.1088 from atom       7
Removing charge of      -1.1088 from atom       8
Removing charge of      -1.1088 from atom       9
Removing charge of      -1.1088 from atom      10
Total charge of  -2.99999999 removed from       5 atoms
     Checking for mismatched coordinates.

--------------------------------------------------------------------------------
   3.  ATOMIC COORDINATES AND VELOCITIES
--------------------------------------------------------------------------------

default_name
 begin time read from input coords =     0.000 ps

 Number of triangulated 3-point waters found:        0

     Sum of charges for TI region  1 =  -2.99999999
     Skip neutralizing charges...

     Sum of charges for TI region  2 =   0.00000000
     Skip neutralizing charges...

--------------------------------------------------------------------------------
   4.  RESULTS
 NSTEP =        0   TIME(PS) =       0.000  TEMP(K) =   301.24  PRESS =     0.0
 Etot   =        -6.8884  EKtot   =         4.4897  EPtot      =       -11.3781
 BOND   =         0.0000  ANGLE   =         6.2592  DIHED      =         0.0000
 1-4 NB =         0.0000  1-4 EEL =         0.0000  VDWAALS    =        -0.0003
 EELEC  =       -17.6370  EHBOND  =         0.0000  RESTRAINT  =         0.0000
 DV/DL  =        85.4753
 ------------------------------------------------------------------------------

      A V E R A G E S   O V E R    1000 S T E P S

 NSTEP =     1000   TIME(PS) =       1.000  TEMP(K) =   350.16  PRESS =     0.0
 Etot   =        -2.7052  EKtot   =         5.2188  EPtot      =        -7.9240
 BOND   =         1.8351  ANGLE   =         7.8744  DIHED      =         0.0000
 1-4 NB =         0.0000  1-4 EEL =         0.0000  VDWAALS    =        -0.0003
 EELEC  =       -17.6331  EHBOND  =         0.0000  RESTRAINT  =         0.0000
 DV/DL  =        85.4576
 ------------------------------------------------------------------------------

      R M S  F L U C T U A T I O N S

 NSTEP =     1000   TIME(PS) =       1.000  TEMP(K) =   107.73  PRESS =     0.0
 Etot   =         2.1369  EKtot   =         1.6057  EPtot      =         1.5666
 BOND   =         1.0800  ANGLE   =         0.9434  DIHED      =         0.0000
 1-4 NB =         0.0000  1-4 EEL =         0.0000  VDWAALS    =         0.0000
 EELEC  =         0.0031  EHBOND  =         0.0000  RESTRAINT  =         0.0000
 DV/DL  =         0.0334
 ------------------------------------------------------------------------------

      A V E R A G E S   O V E R    1000 S T E P S

 NSTEP =     1000   TIME(PS) =       1.000  TEMP(K) =   349.80  PRESS =     0.0
 Etot   =        -2.7106  EKtot   =         5.2135  EPtot      =        -7.9240
 BOND   =         1.8351  ANGLE   =         7.8744  DIHED      =         0.0000
 1-4 NB =         0.0000  1-4 EEL =         0.0000  VDWAALS    =        -0.0003
 EELEC  =       -17.6331  EHBOND  =         0.0000  RESTRAINT  =         0.0000
 DV/DL  =        85.4576
 ------------------------------------------------------------------------------

      R M S  F L U C T U A T I O N S

 NSTEP =     1000   TIME(PS) =       1.000  TEMP(K) =   108.00  PRESS =     0.0
 Etot   =         2.1418  EKtot   =         1.6096  EPtot      =         1.5666
 BOND   =         1.0800  ANGLE   =         0.9434  DIHED      =         0.0000
 1-4 NB =         0.0000  1-4 EEL =         0.0000  VDWAALS    =         0.0000
 EELEC  =         0.0031  EHBOND  =         0.0000  RESTRAINT  =         0.0000
 DV/DL  =         0.0334
 ------------------------------------------------------------------------------

      DV/DL, AVERAGES OVER    1000 STEPS

 NSTEP =     1000   TIME(PS) =       1.000  TEMP(K) =   108.00  PRESS =     0.0
 Etot   =         0.0000  EKtot   =         0.0000  EPtot      =        85.4576
 BOND   =         0.0009  ANGLE   =        -0.0001  DIHED      =         0.0000
 1-4 NB =         0.0000  1-4 EEL =         0.0000  VDWAALS    =         0.0000
 EELEC  =        85.4568  EHBOND  =         0.0000  RESTRAINT  =         0.0000
 DV/DL  =        85.4576
 ------------------------------------------------------------------------------

      A V E R A G E S   O V E R    1000 S T E P S

 NSTEP =     2000   TIME(PS) =       2.000  TEMP(K) =   201.08  PRESS =     0.0
 Etot   =        -6.5697  EKtot   =         2.9969  EPtot      =        -9.5666
 BOND   =         0.8668  ANGLE   =         7.2008  DIHED      =         0.0000
 1-4 NB =         0.0000  1-4 EEL =         0.0000  VDWAALS    =        -0.0003
 EELEC  =       -17.6339  EHBOND  =         0.0000  RESTRAINT  =         0.0000
 DV/DL  =        85.4598
 ------------------------------------------------------------------------------

      R M S  F L U C T U A T I O N S

 NSTEP =     2000   TIME(PS) =       2.000  TEMP(K) =    58.15  PRESS =     0.0
 Etot   =         0.9065  EKtot   =         0.8666  EPtot      =         0.7546
 BOND   =         0.5661  ANGLE   =         0.4587  DIHED      =         0.0000
 1-4 NB =         0.0000  1-4 EEL =         0.0000  VDWAALS    =         0.0000
 EELEC  =         0.0021  EHBOND  =         0.0000  RESTRAINT  =         0.0000
 DV/DL  =         0.0225
 ------------------------------------------------------------------------------

      A V E R A G E S   O V E R    1000 S T E P S

 NSTEP =     2000   TIME(PS) =       2.000  TEMP(K) =   201.09  PRESS =     0.0
 Etot   =        -6.5696  EKtot   =         2.9970  EPtot      =        -9.5666
 BOND   =         0.8668  ANGLE   =         7.2008  DIHED      =         0.0000
 1-4 NB =         0.0000  1-4 EEL =         0.0000  VDWAALS    =        -0.0003
 EELEC  =       -17.6339  EHBOND  =         0.0000  RESTRAINT  =         0.0000
 DV/DL  =        85.4598
 ------------------------------------------------------------------------------

      R M S  F L U C T U A T I O N S

 NSTEP =     2000   TIME(PS) =       2.000  TEMP(K) =    58.27  PRESS =     0.0
 Etot   =         0.9111  EKtot   =         0.8685  EPtot      =         0.7546
 BOND   =         0.5661  ANGLE   =         0.4587  DIHED      =         0.0000
 1-4 NB =         0.0000  1-4 EEL =         0.0000  VDWAALS    =         0.0000
 EELEC  =         0.0021  EHBOND  =         0.0000  RESTRAINT  =         0.0000
 DV/DL  =         0.0225
 ------------------------------------------------------------------------------

      DV/DL, AVERAGES OVER    1000 STEPS

 NSTEP =     2000   TIME(PS) =       2.000  TEMP(K) =    58.27  PRESS =     0.0
 Etot   =         0.0000  EKtot   =         0.0000  EPtot      =        85.4598
 BOND   =        -0.0006  ANGLE   =         0.0002  DIHED      =         0.0000
 1-4 NB =         0.0000  1-4 EEL =         0.0000  VDWAALS    =         0.0000
 EELEC  =        85.4602  EHBOND  =         0.0000  RESTRAINT  =         0.0000
 DV/DL  =        85.4598
 ------------------------------------------------------------------------------

      A V E R A G E S   O V E R    1000 S T E P S

 NSTEP =  1000000   TIME(PS) =    1000.000  TEMP(K) =   380.61  PRESS =     0.0
 Etot   =        -2.7223  EKtot   =         5.6725  EPtot      =        -8.3948
 BOND   =         1.4460  ANGLE   =         7.7937  DIHED      =         0.0000
 1-4 NB =         0.0000  1-4 EEL =         0.0000  VDWAALS    =        -0.0003
 EELEC  =       -17.6342  EHBOND  =         0.0000  RESTRAINT  =         0.0000
 DV/DL  =        85.4617
 ------------------------------------------------------------------------------

      R M S  F L U C T U A T I O N S

 NSTEP =  1000000   TIME(PS) =    1000.000  TEMP(K) =    93.65  PRESS =     0.0
 Etot   =         1.4718  EKtot   =         1.3957  EPtot      =         0.9710
 BOND   =         0.8213  ANGLE   =         0.5423  DIHED      =         0.0000
 1-4 NB =         0.0000  1-4 EEL =         0.0000  VDWAALS    =         0.0000
 EELEC  =         0.0016  EHBOND  =         0.0000  RESTRAINT  =         0.0000
 DV/DL  =         0.0277
 ------------------------------------------------------------------------------

      A V E R A G E S   O V E R    1000 S T E P S

 NSTEP =  1000000   TIME(PS) =    1000.000  TEMP(K) =   380.21  PRESS =     0.0
 Etot   =        -2.7282  EKtot   =         5.6666  EPtot      =        -8.3948
 BOND   =         1.4460  ANGLE   =         7.7937  DIHED      =         0.0000
 1-4 NB =         0.0000  1-4 EEL =         0.0000  VDWAALS    =        -0.0003
 EELEC  =       -17.6342  EHBOND  =         0.0000  RESTRAINT  =         0.0000
 DV/DL  =        85.4617
 ------------------------------------------------------------------------------

      R M S  F L U C T U A T I O N S

 NSTEP =  1000000   TIME(PS) =    1000.000  TEMP(K) =    93.72  PRESS =     0.0
 Etot   =         1.4744  EKtot   =         1.3968  EPtot      =         0.9710
 BOND   =         0.8213  ANGLE   =         0.5423  DIHED      =         0.0000
 1-4 NB =         0.0000  1-4 EEL =         0.0000  VDWAALS    =         0.0000
 EELEC  =         0.0016  EHBOND  =         0.0000  RESTRAINT  =         0.0000
 DV/DL  =         0.0277
 ------------------------------------------------------------------------------

      DV/DL, AVERAGES OVER    1000 STEPS

 NSTEP =  1000000   TIME(PS) =    1000.000  TEMP(K) =    93.72  PRESS =     0.0
 Etot   =         0.0000  EKtot   =         0.0000  EPtot      =        85.4617
 BOND   =        -0.0002  ANGLE   =        -0.0000  DIHED      =         0.0000
 1-4 NB =         0.0000  1-4 EEL =         0.0000  VDWAALS    =         0.0000
 EELEC  =        85.4619  EHBOND  =         0.0000  RESTRAINT  =         0.0000
 DV/DL  =        85.4617
 ------------------------------------------------------------------------------

      A V E R A G E S   O V E R 1000000 S T E P S

 NSTEP =  1000000   TIME(PS) =    1000.000  TEMP(K) =   306.89  PRESS =     0.0
 Etot   =        -3.9626  EKtot   =         4.5739  EPtot      =        -8.5365
 BOND   =         1.3118  ANGLE   =         7.7855  DIHED      =         0.0000
 1-4 NB =         0.0000  1-4 EEL =         0.0000  VDWAALS    =        -0.0003
 EELEC  =       -17.6335  EHBOND  =         0.0000  RESTRAINT  =         0.0000
 DV/DL  =        85.4585
 ------------------------------------------------------------------------------

      R M S  F L U C T U A T I O N S

 NSTEP =  1000000   TIME(PS) =    1000.000  TEMP(K) =   110.97  PRESS =     0.0
 Etot   =         2.1212  EKtot   =         1.6538  EPtot      =         1.3458
 BOND   =         0.9305  ANGLE   =         0.9666  DIHED      =         0.0000
 1-4 NB =         0.0000  1-4 EEL =         0.0000  VDWAALS    =         0.0000
 EELEC  =         0.0023  EHBOND  =         0.0000  RESTRAINT  =         0.0000
 DV/DL  =         0.0280
 ------------------------------------------------------------------------------

      A V E R A G E S   O V E R 1000000 S T E P S

 NSTEP =  1000000   TIME(PS) =    1000.000  TEMP(K) =   306.89  PRESS =     0.0
 Etot   =        -3.9627  EKtot   =         4.5739  EPtot      =        -8.5365
 BOND   =         1.3118  ANGLE   =         7.7855  DIHED      =         0.0000
 1-4 NB =         0.0000  1-4 EEL =         0.0000  VDWAALS    =        -0.0003
 EELEC  =       -17.6335  EHBOND  =         0.0000  RESTRAINT  =         0.0000
 DV/DL  =        85.4585
 ------------------------------------------------------------------------------

      R M S  F L U C T U A T I O N S

 NSTEP =  1000000   TIME(PS) =    1000.000  TEMP(K) =   110.96  PRESS =     0.0
 Etot   =         2.1212  EKtot   =         1.6537  EPtot      =         1.3458
 BOND   =         0.9305  ANGLE   =         0.9666  DIHED      =         0.0000
 1-4 NB =         0.0000  1-4 EEL =         0.0000  VDWAALS    =         0.0000
 EELEC  =         0.0023  EHBOND  =         0.0000  RESTRAINT  =         0.0000
 DV/DL  =         0.0280
 ------------------------------------------------------------------------------

      DV/DL, AVERAGES OVER 1000000 STEPS

 NSTEP =  1000000   TIME(PS) =    1000.000  TEMP(K) =   110.96  PRESS =     0.0
 Etot   =         0.0000  EKtot   =         0.0000  EPtot      =        85.4585
 BOND   =         0.0000  ANGLE   =        -0.0000  DIHED      =         0.0000
 1-4 NB =         0.0000  1-4 EEL =         0.0000  VDWAALS    =         0.0000
 EELEC  =        85.4585  EHBOND  =         0.0000  RESTRAINT  =         0.0000
 DV/DL  =        85.4585
 ------------------------------------------------------------------------------
