-------------------------------------------------------
          Amber 20 PMEMD                              2020
          -------------------------------------------------------

  [-O]verwriting output

File Assignments:

 Here is the input file:

 &cntrl
   nstlim=500000, nscm=1000,
   ntx=1, irest=0, ntpr=1000,
   tempi=300.0, temp0=300.0, ntt=3, gamma_ln=2.0,
   ntb=1, igb=0, cut=10.0,
   dt=0.002, ig=-1,
   ntc=2, ntf=2,
   iwrap=0,
   ntwr=1000, ntwx=50000, ntave=1000,
   ioutfm=1, ntwv=-1,
   ifsc = 0, icfe=1,
   clambda=0.56262,
   timask1=':1',
   timask2=':2',
/

Note: ig = -1. Setting random seed to   601170 based on wallclock time in
      microseconds.

--------------------------------------------------------------------------------
   1.  RESOURCE   USE:
--------------------------------------------------------------------------------

 getting box info from netcdf restart file
 NATOM  =      10 NTYPES =       6 NBONH =       0 MBONA  =       8
 NTHETH =       0 MTHETA =      12 NPHIH =       0 MPHIA  =       0
 NHPARM =       0 NPARM  =       0 NNB   =      22 NRES   =       2
 NBONA  =       8 NTHETA =      12 NPHIA =       0 NUMBND =       1
 NUMANG =       1 NPTRA  =       0 NATYP =       4 NPHB   =       1
 IFBOX  =       2 NMXRS  =       5 IFCAP =       0 NEXTRA =       0
 NCOPY  =       0

     BOX TYPE: TRUNCATED OCTAHEDRON

--------------------------------------------------------------------------------
   2.  CONTROL  DATA  FOR  THE  RUN
--------------------------------------------------------------------------------

default_name

General flags:
     imin    =       0, nmropt  =       0

Nature and format of input:
     ntx     =       1, irest   =       0, ntrx    =       1

Nature and format of output:
     ntxo    =       2, ntpr    =    1000, ntrx    =       1, ntwr    =    1000
     iwrap   =       0, ntwx    =   50000, ntwv    =      -1, ntwe    =       0
     ioutfm  =       1, ntwprt  =       0, idecomp =       0, rbornstat=      0

Potential function:
     ntf     =       2, ntb     =       1, igb     =       0, nsnb    =      25
     ipol    =       0, gbsa    =       0, iesp    =       0
     dielc   =   1.00000, cut     =  10.00000, intdiel =   1.00000

Frozen or restrained atoms:
     ibelly  =       0, ntr     =       0

Molecular dynamics:
     nstlim  =    500000, nscm    =      1000, nrespa  =         1
     t       =   0.00000, dt      =   0.00200, vlimit  =  -1.00000

Langevin dynamics temperature regulation:
     ig      =  601170
     temp0   = 300.00000, tempi   = 300.00000, gamma_ln=   2.00000

SHAKE:
     ntc     =       2, jfastw  =       0
     tol     =   0.00001

Free energy options:
     icfe    =       1, ifsc    =       0, klambda =       1
     clambda =  0.5626, scalpha =  0.5000, scbeta  = 12.0000
     sceeorder =       2
     dynlmb =  0.0000 logdvdl =       0

Ewald parameters:
     verbose =       0, ew_type =       0, nbflag  =       1, use_pme =       1
     vdwmeth =       1, eedmeth =       1, netfrc  =       1
     Box X =   55.004   Box Y =   55.004   Box Z =   55.004
     Alpha =  109.471   Beta  =  109.471   Gamma =  109.471
     NFFT1 =   56       NFFT2 =   56       NFFT3 =   56
     Cutoff=   10.000   Tol   =0.100E-04
     Ewald Coefficient =  0.27511
     Interpolation order =    4
     TI Mask 1 :1; matches      5 atoms
     TI Mask 2 :2; matches      5 atoms
     TI region 1:       5 atoms
     TI region 2:       5 atoms
     Checking for mismatched coordinates.

--------------------------------------------------------------------------------
   3.  ATOMIC COORDINATES AND VELOCITIES
--------------------------------------------------------------------------------

default_name
 begin time read from input coords =     0.000 ps

 Number of triangulated 3-point waters found:        0

     Sum of charges for TI region  1 =  -2.99999999
     Skip neutralizing charges...

     Sum of charges for TI region  2 =   0.00000000
     Skip neutralizing charges...

--------------------------------------------------------------------------------
   4.  RESULTS
 NSTEP =        0   TIME(PS) =       0.000  TEMP(K) =   359.28  PRESS =     0.0
 Etot   =       -25.7768  EKtot   =         5.3547  EPtot      =       -31.1315
 BOND   =         0.0000  ANGLE   =         6.2592  DIHED      =         0.0000
 1-4 NB =         0.0000  1-4 EEL =         0.0000  VDWAALS    =        -0.0001
 EELEC  =       -37.3906  EHBOND  =         0.0000  RESTRAINT  =         0.0000
 DV/DL  =        85.4880
 ------------------------------------------------------------------------------

      A V E R A G E S   O V E R    1000 S T E P S

 NSTEP =     1000   TIME(PS) =       2.000  TEMP(K) =   276.35  PRESS =     0.0
 Etot   =       -23.8837  EKtot   =         4.1187  EPtot      =       -28.0024
 BOND   =         1.8779  ANGLE   =         7.4988  DIHED      =         0.0000
 1-4 NB =         0.0000  1-4 EEL =         0.0000  VDWAALS    =        -0.0001
 EELEC  =       -37.3791  EHBOND  =         0.0000  RESTRAINT  =         0.0000
 DV/DL  =        85.4616
 ------------------------------------------------------------------------------

      R M S  F L U C T U A T I O N S

 NSTEP =     1000   TIME(PS) =       2.000  TEMP(K) =   110.04  PRESS =     0.0
 Etot   =         2.4145  EKtot   =         1.6400  EPtot      =         1.7291
 BOND   =         1.2289  ANGLE   =         1.0363  DIHED      =         0.0000
 1-4 NB =         0.0000  1-4 EEL =         0.0000  VDWAALS    =         0.0000
 EELEC  =         0.0057  EHBOND  =         0.0000  RESTRAINT  =         0.0000
 DV/DL  =         0.0130
 ------------------------------------------------------------------------------

      A V E R A G E S   O V E R    1000 S T E P S

 NSTEP =     1000   TIME(PS) =       2.000  TEMP(K) =   276.35  PRESS =     0.0
 Etot   =       -23.8837  EKtot   =         4.1187  EPtot      =       -28.0024
 BOND   =         1.8779  ANGLE   =         7.4988  DIHED      =         0.0000
 1-4 NB =         0.0000  1-4 EEL =         0.0000  VDWAALS    =        -0.0001
 EELEC  =       -37.3791  EHBOND  =         0.0000  RESTRAINT  =         0.0000
 DV/DL  =        85.4616
 ------------------------------------------------------------------------------

      R M S  F L U C T U A T I O N S

 NSTEP =     1000   TIME(PS) =       2.000  TEMP(K) =   110.04  PRESS =     0.0
 Etot   =         2.4145  EKtot   =         1.6400  EPtot      =         1.7291
 BOND   =         1.2289  ANGLE   =         1.0363  DIHED      =         0.0000
 1-4 NB =         0.0000  1-4 EEL =         0.0000  VDWAALS    =         0.0000
 EELEC  =         0.0057  EHBOND  =         0.0000  RESTRAINT  =         0.0000
 DV/DL  =         0.0130
 ------------------------------------------------------------------------------

      DV/DL, AVERAGES OVER    1000 STEPS

 NSTEP =     1000   TIME(PS) =       2.000  TEMP(K) =   110.04  PRESS =     0.0
 Etot   =         0.0000  EKtot   =         0.0000  EPtot      =        85.4616
 BOND   =         0.0000  ANGLE   =         0.0000  DIHED      =         0.0000
 1-4 NB =         0.0000  1-4 EEL =         0.0000  VDWAALS    =         0.0003
 EELEC  =        85.4613  EHBOND  =         0.0000  RESTRAINT  =         0.0000
 DV/DL  =        85.4616
 ------------------------------------------------------------------------------

      A V E R A G E S   O V E R    1000 S T E P S

 NSTEP =     2000   TIME(PS) =       4.000  TEMP(K) =   277.69  PRESS =     0.0
 Etot   =       -24.1400  EKtot   =         4.1387  EPtot      =       -28.2787
 BOND   =         0.9341  ANGLE   =         8.1634  DIHED      =         0.0000
 1-4 NB =         0.0000  1-4 EEL =         0.0000  VDWAALS    =        -0.0001
 EELEC  =       -37.3760  EHBOND  =         0.0000  RESTRAINT  =         0.0000
 DV/DL  =        85.4546
 ------------------------------------------------------------------------------

      R M S  F L U C T U A T I O N S

 NSTEP =     2000   TIME(PS) =       4.000  TEMP(K) =    75.40  PRESS =     0.0
 Etot   =         1.0448  EKtot   =         1.1237  EPtot      =         1.0339
 BOND   =         0.6306  ANGLE   =         0.8704  DIHED      =         0.0000
 1-4 NB =         0.0000  1-4 EEL =         0.0000  VDWAALS    =         0.0000
 EELEC  =         0.0043  EHBOND  =         0.0000  RESTRAINT  =         0.0000
 DV/DL  =         0.0098
 ------------------------------------------------------------------------------

      A V E R A G E S   O V E R    1000 S T E P S

 NSTEP =     2000   TIME(PS) =       4.000  TEMP(K) =   277.69  PRESS =     0.0
 Etot   =       -24.1400  EKtot   =         4.1387  EPtot      =       -28.2787
 BOND   =         0.9341  ANGLE   =         8.1634  DIHED      =         0.0000
 1-4 NB =         0.0000  1-4 EEL =         0.0000  VDWAALS    =        -0.0001
 EELEC  =       -37.3760  EHBOND  =         0.0000  RESTRAINT  =         0.0000
 DV/DL  =        85.4546
 ------------------------------------------------------------------------------

      R M S  F L U C T U A T I O N S

 NSTEP =     2000   TIME(PS) =       4.000  TEMP(K) =    75.40  PRESS =     0.0
 Etot   =         1.0448  EKtot   =         1.1237  EPtot      =         1.0339
 BOND   =         0.6306  ANGLE   =         0.8704  DIHED      =         0.0000
 1-4 NB =         0.0000  1-4 EEL =         0.0000  VDWAALS    =         0.0000
 EELEC  =         0.0043  EHBOND  =         0.0000  RESTRAINT  =         0.0000
 DV/DL  =         0.0098
 ------------------------------------------------------------------------------

      DV/DL, AVERAGES OVER    1000 STEPS

 NSTEP =     2000   TIME(PS) =       4.000  TEMP(K) =    75.40  PRESS =     0.0
 Etot   =         0.0000  EKtot   =         0.0000  EPtot      =        85.4546
 BOND   =         0.0000  ANGLE   =         0.0000  DIHED      =         0.0000
 1-4 NB =         0.0000  1-4 EEL =         0.0000  VDWAALS    =         0.0003
 EELEC  =        85.4543  EHBOND  =         0.0000  RESTRAINT  =         0.0000
 DV/DL  =        85.4546
 ------------------------------------------------------------------------------

      A V E R A G E S   O V E R    1000 S T E P S

 NSTEP =   500000   TIME(PS) =    1000.000  TEMP(K) =   313.01  PRESS =     0.0
 Etot   =       -24.0611  EKtot   =         4.6650  EPtot      =       -28.7261
 BOND   =         0.9640  ANGLE   =         7.6875  DIHED      =         0.0000
 1-4 NB =         0.0000  1-4 EEL =         0.0000  VDWAALS    =        -0.0001
 EELEC  =       -37.3775  EHBOND  =         0.0000  RESTRAINT  =         0.0000
 DV/DL  =        85.4579
 ------------------------------------------------------------------------------

      R M S  F L U C T U A T I O N S

 NSTEP =   500000   TIME(PS) =    1000.000  TEMP(K) =   100.69  PRESS =     0.0
 Etot   =         1.6162  EKtot   =         1.5006  EPtot      =         0.9430
 BOND   =         0.5320  ANGLE   =         0.8508  DIHED      =         0.0000
 1-4 NB =         0.0000  1-4 EEL =         0.0000  VDWAALS    =         0.0000
 EELEC  =         0.0047  EHBOND  =         0.0000  RESTRAINT  =         0.0000
 DV/DL  =         0.0108
 ------------------------------------------------------------------------------

      A V E R A G E S   O V E R    1000 S T E P S

 NSTEP =   500000   TIME(PS) =    1000.000  TEMP(K) =   313.01  PRESS =     0.0
 Etot   =       -24.0611  EKtot   =         4.6650  EPtot      =       -28.7261
 BOND   =         0.9640  ANGLE   =         7.6875  DIHED      =         0.0000
 1-4 NB =         0.0000  1-4 EEL =         0.0000  VDWAALS    =        -0.0001
 EELEC  =       -37.3775  EHBOND  =         0.0000  RESTRAINT  =         0.0000
 DV/DL  =        85.4579
 ------------------------------------------------------------------------------

      R M S  F L U C T U A T I O N S

 NSTEP =   500000   TIME(PS) =    1000.000  TEMP(K) =   100.69  PRESS =     0.0
 Etot   =         1.6162  EKtot   =         1.5006  EPtot      =         0.9430
 BOND   =         0.5320  ANGLE   =         0.8508  DIHED      =         0.0000
 1-4 NB =         0.0000  1-4 EEL =         0.0000  VDWAALS    =         0.0000
 EELEC  =         0.0047  EHBOND  =         0.0000  RESTRAINT  =         0.0000
 DV/DL  =         0.0108
 ------------------------------------------------------------------------------

      DV/DL, AVERAGES OVER    1000 STEPS

 NSTEP =   500000   TIME(PS) =    1000.000  TEMP(K) =   100.69  PRESS =     0.0
 Etot   =         0.0000  EKtot   =         0.0000  EPtot      =        85.4579
 BOND   =         0.0000  ANGLE   =         0.0000  DIHED      =         0.0000
 1-4 NB =         0.0000  1-4 EEL =         0.0000  VDWAALS    =         0.0003
 EELEC  =        85.4576  EHBOND  =         0.0000  RESTRAINT  =         0.0000
 DV/DL  =        85.4579
 ------------------------------------------------------------------------------

      A V E R A G E S   O V E R  500000 S T E P S

 NSTEP =   500000   TIME(PS) =    1000.000  TEMP(K) =   301.00  PRESS =     0.0
 Etot   =       -23.8857  EKtot   =         4.4862  EPtot      =       -28.3719
 BOND   =         1.2494  ANGLE   =         7.7567  DIHED      =         0.0000
 1-4 NB =         0.0000  1-4 EEL =         0.0000  VDWAALS    =        -0.0001
 EELEC  =       -37.3778  EHBOND  =         0.0000  RESTRAINT  =         0.0000
 DV/DL  =        85.4588
 ------------------------------------------------------------------------------

      R M S  F L U C T U A T I O N S

 NSTEP =   500000   TIME(PS) =    1000.000  TEMP(K) =   109.70  PRESS =     0.0
 Etot   =         2.0840  EKtot   =         1.6350  EPtot      =         1.2962
 BOND   =         0.8817  ANGLE   =         0.9527  DIHED      =         0.0000
 1-4 NB =         0.0000  1-4 EEL =         0.0000  VDWAALS    =         0.0000
 EELEC  =         0.0048  EHBOND  =         0.0000  RESTRAINT  =         0.0000
 DV/DL  =         0.0111
 ------------------------------------------------------------------------------

      A V E R A G E S   O V E R  500000 S T E P S

 NSTEP =   500000   TIME(PS) =    1000.000  TEMP(K) =   301.00  PRESS =     0.0
 Etot   =       -23.8857  EKtot   =         4.4862  EPtot      =       -28.3719
 BOND   =         1.2494  ANGLE   =         7.7567  DIHED      =         0.0000
 1-4 NB =         0.0000  1-4 EEL =         0.0000  VDWAALS    =        -0.0001
 EELEC  =       -37.3778  EHBOND  =         0.0000  RESTRAINT  =         0.0000
 DV/DL  =        85.4588
 ------------------------------------------------------------------------------

      R M S  F L U C T U A T I O N S

 NSTEP =   500000   TIME(PS) =    1000.000  TEMP(K) =   109.70  PRESS =     0.0
 Etot   =         2.0840  EKtot   =         1.6350  EPtot      =         1.2962
 BOND   =         0.8817  ANGLE   =         0.9527  DIHED      =         0.0000
 1-4 NB =         0.0000  1-4 EEL =         0.0000  VDWAALS    =         0.0000
 EELEC  =         0.0048  EHBOND  =         0.0000  RESTRAINT  =         0.0000
 DV/DL  =         0.0111
 ------------------------------------------------------------------------------

      DV/DL, AVERAGES OVER  500000 STEPS

 NSTEP =   500000   TIME(PS) =    1000.000  TEMP(K) =   109.70  PRESS =     0.0
 Etot   =         0.0000  EKtot   =         0.0000  EPtot      =        85.4588
 BOND   =         0.0000  ANGLE   =         0.0000  DIHED      =         0.0000
 1-4 NB =         0.0000  1-4 EEL =         0.0000  VDWAALS    =         0.0003
 EELEC  =        85.4585  EHBOND  =         0.0000  RESTRAINT  =         0.0000
 DV/DL  =        85.4588
 ------------------------------------------------------------------------------
