-------------------------------------------------------
          Amber 20 PMEMD                              2020
          -------------------------------------------------------

  [-O]verwriting output

File Assignments:

 Here is the input file:

 &cntrl
   nstlim=500000, nscm=1000,
   ntx=5, irest=1, ntpr=1000,
   tempi=300.0, temp0=300.0, ntt=3, gamma_ln=2.0,
   ntp=1, pres0=1.01325, taup=5.0,
   ntb=2, igb=0, cut=10.0,
   dt=0.002, ig=-1,
   ntc=2, ntf=2,
   iwrap=0,
   ntwr=1000, ntwx=50000, ntave=1000,
   ioutfm=1, ntwv=-1,
   ifsc = 0, icfe=1,
   clambda=0.20634,
   timask1=':1',
   timask2=':2',
/

Note: ig = -1. Setting random seed to   105788 based on wallclock time in
      microseconds.

--------------------------------------------------------------------------------
   1.  RESOURCE   USE:
--------------------------------------------------------------------------------

 getting box info from netcdf restart file
 NATOM  =   11419 NTYPES =       6 NBONH =   11409 MBONA  =       8
 NTHETH =       0 MTHETA =      12 NPHIH =       0 MPHIA  =       0
 NHPARM =       0 NPARM  =       0 NNB   =   15234 NRES   =    3805
 NBONA  =       8 NTHETA =      12 NPHIA =       0 NUMBND =       3
 NUMANG =       1 NPTRA  =       0 NATYP =       4 NPHB   =       1
 IFBOX  =       2 NMXRS  =       5 IFCAP =       0 NEXTRA =       0
 NCOPY  =       0

     BOX TYPE: TRUNCATED OCTAHEDRON

--------------------------------------------------------------------------------
   2.  CONTROL  DATA  FOR  THE  RUN
--------------------------------------------------------------------------------

default_name

General flags:
     imin    =       0, nmropt  =       0

Nature and format of input:
     ntx     =       5, irest   =       1, ntrx    =       1

Nature and format of output:
     ntxo    =       2, ntpr    =    1000, ntrx    =       1, ntwr    =    1000
     iwrap   =       0, ntwx    =   50000, ntwv    =      -1, ntwe    =       0
     ioutfm  =       1, ntwprt  =       0, idecomp =       0, rbornstat=      0

Potential function:
     ntf     =       2, ntb     =       2, igb     =       0, nsnb    =      25
     ipol    =       0, gbsa    =       0, iesp    =       0
     dielc   =   1.00000, cut     =  10.00000, intdiel =   1.00000

Frozen or restrained atoms:
     ibelly  =       0, ntr     =       0

Molecular dynamics:
     nstlim  =    500000, nscm    =      1000, nrespa  =         1
     t       =   0.00000, dt      =   0.00200, vlimit  =  -1.00000

Langevin dynamics temperature regulation:
     ig      =  105788
     temp0   = 300.00000, tempi   = 300.00000, gamma_ln=   2.00000

Pressure regulation:
     ntp     =       1
     pres0   =   1.01325, comp    =  44.60000, taup    =   5.00000

SHAKE:
     ntc     =       2, jfastw  =       0
     tol     =   0.00001

Free energy options:
     icfe    =       1, ifsc    =       0, klambda =       1
     clambda =  0.2063, scalpha =  0.5000, scbeta  = 12.0000
     sceeorder =       2
     dynlmb =  0.0000 logdvdl =       0

Ewald parameters:
     verbose =       0, ew_type =       0, nbflag  =       1, use_pme =       1
     vdwmeth =       1, eedmeth =       1, netfrc  =       1
     Box X =   55.004   Box Y =   55.004   Box Z =   55.004
     Alpha =  109.471   Beta  =  109.471   Gamma =  109.471
     NFFT1 =   56       NFFT2 =   56       NFFT3 =   56
     Cutoff=   10.000   Tol   =0.100E-04
     Ewald Coefficient =  0.27511
     Interpolation order =    4
     TI Mask 1 :1; matches      5 atoms
     TI Mask 2 :2; matches      5 atoms
     TI region 1:   11414 atoms
     TI region 2:   11414 atoms
     Checking for mismatched coordinates.

--------------------------------------------------------------------------------
   3.  ATOMIC COORDINATES AND VELOCITIES
--------------------------------------------------------------------------------

default_name
 begin time read from input coords =   200.000 ps

 Number of triangulated 3-point waters found:     3803

     Sum of charges for TI region  1 =  -2.99999999
     Skip neutralizing charges...

     Sum of charges for TI region  2 =   0.00000000
     Skip neutralizing charges...

--------------------------------------------------------------------------------
   4.  RESULTS
 NSTEP =     1000   TIME(PS) =     202.000  TEMP(K) =   296.24  PRESS =  -977.5
 Etot   =    -29350.2280  EKtot   =      6720.6543  EPtot      =    -36070.8823
 BOND   =         5.2182  ANGLE   =         6.7404  DIHED      =         0.0000
 1-4 NB =         0.0000  1-4 EEL =         0.0000  VDWAALS    =      5234.3754
 EELEC  =    -41317.2163  EHBOND  =         0.0000  RESTRAINT  =         0.0000
 EKCMT  =      3395.3983  VIRIAL  =      6052.0381  VOLUME     =    125868.6351
                                                    Density    =         0.9052
 DV/DL  =       938.4948
 ------------------------------------------------------------------------------

      A V E R A G E S   O V E R    1000 S T E P S

 NSTEP =     1000   TIME(PS) =     202.000  TEMP(K) =   299.64  PRESS =  -986.2
 Etot   =    -29176.0968  EKtot   =      6797.7892  EPtot      =    -35973.8860
 BOND   =         2.3440  ANGLE   =         8.1109  DIHED      =         0.0000
 1-4 NB =         0.0000  1-4 EEL =         0.0000  VDWAALS    =      5211.4246
 EELEC  =    -41195.7655  EHBOND  =         0.0000  RESTRAINT  =         0.0000
 EKCMT  =      3410.7304  VIRIAL  =      6114.6966  VOLUME     =    126959.0046
                                                    Density    =         0.8974
 DV/DL  =       948.4289
 ------------------------------------------------------------------------------

      R M S  F L U C T U A T I O N S

 NSTEP =     1000   TIME(PS) =     202.000  TEMP(K) =     2.58  PRESS =   130.5
 Etot   =        88.7820  EKtot   =        58.4526  EPtot      =        84.7558
 BOND   =         1.2659  ANGLE   =         1.0665  DIHED      =         0.0000
 1-4 NB =         0.0000  1-4 EEL =         0.0000  VDWAALS    =        73.8643
 EELEC  =       131.8377  EHBOND  =         0.0000  RESTRAINT  =         0.0000
 EKCMT  =        38.6643  VIRIAL  =       364.4778  VOLUME     =       639.2816
                                                    Density    =         0.0045
 DV/DL  =        21.8365
 ------------------------------------------------------------------------------

      A V E R A G E S   O V E R    1000 S T E P S

 NSTEP =     1000   TIME(PS) =     202.000  TEMP(K) =   299.64  PRESS =  -986.2
 Etot   =    -29176.0968  EKtot   =      6797.7892  EPtot      =    -35973.8860
 BOND   =         2.3440  ANGLE   =         8.1109  DIHED      =         0.0000
 1-4 NB =         0.0000  1-4 EEL =         0.0000  VDWAALS    =      5211.4246
 EELEC  =    -41195.7655  EHBOND  =         0.0000  RESTRAINT  =         0.0000
 EKCMT  =      3410.7304  VIRIAL  =      6114.6966  VOLUME     =    126959.0046
                                                    Density    =         0.8974
 DV/DL  =       948.4289
 ------------------------------------------------------------------------------

      R M S  F L U C T U A T I O N S

 NSTEP =     1000   TIME(PS) =     202.000  TEMP(K) =     2.58  PRESS =   130.5
 Etot   =        88.7820  EKtot   =        58.4526  EPtot      =        84.7558
 BOND   =         1.2659  ANGLE   =         1.0665  DIHED      =         0.0000
 1-4 NB =         0.0000  1-4 EEL =         0.0000  VDWAALS    =        73.8643
 EELEC  =       131.8377  EHBOND  =         0.0000  RESTRAINT  =         0.0000
 EKCMT  =        38.6643  VIRIAL  =       364.4778  VOLUME     =       639.2816
                                                    Density    =         0.0045
 DV/DL  =        21.8365
 ------------------------------------------------------------------------------

      DV/DL, AVERAGES OVER    1000 STEPS

 NSTEP =     1000   TIME(PS) =     202.000  TEMP(K) =     2.58  PRESS =     0.0
 Etot   =         0.0000  EKtot   =         0.0000  EPtot      =       948.4289
 BOND   =         0.0000  ANGLE   =         0.0000  DIHED      =         0.0000
 1-4 NB =         0.0000  1-4 EEL =         0.0000  VDWAALS    =       -36.9125
 EELEC  =       985.3415  EHBOND  =         0.0000  RESTRAINT  =         0.0000
 EKCMT  =         0.0000  VIRIAL  =         0.0000  VOLUME     =         0.0000
                                                    Density    =         0.0000
 DV/DL  =       948.4289
 ------------------------------------------------------------------------------

      A V E R A G E S   O V E R    1000 S T E P S

 NSTEP =     2000   TIME(PS) =     204.000  TEMP(K) =   298.78  PRESS =  -885.9
 Etot   =    -29416.5619  EKtot   =      6778.3723  EPtot      =    -36194.9342
 BOND   =         2.1340  ANGLE   =         7.8549  DIHED      =         0.0000
 1-4 NB =         0.0000  1-4 EEL =         0.0000  VDWAALS    =      5261.3962
 EELEC  =    -41466.3193  EHBOND  =         0.0000  RESTRAINT  =         0.0000
 EKCMT  =      3390.2694  VIRIAL  =      5778.8278  VOLUME     =    124843.3866
                                                    Density    =         0.9126
 DV/DL  =       952.6909
 ------------------------------------------------------------------------------

      R M S  F L U C T U A T I O N S

 NSTEP =     2000   TIME(PS) =     204.000  TEMP(K) =     2.16  PRESS =   166.2
 Etot   =       107.1722  EKtot   =        48.9928  EPtot      =       106.9401
 BOND   =         1.2804  ANGLE   =         1.0105  DIHED      =         0.0000
 1-4 NB =         0.0000  1-4 EEL =         0.0000  VDWAALS    =        94.8218
 EELEC  =       170.3445  EHBOND  =         0.0000  RESTRAINT  =         0.0000
 EKCMT  =        40.8700  VIRIAL  =       456.3711  VOLUME     =       563.3887
                                                    Density    =         0.0041
 DV/DL  =        21.2991
 ------------------------------------------------------------------------------

      A V E R A G E S   O V E R    1000 S T E P S

 NSTEP =     2000   TIME(PS) =     204.000  TEMP(K) =   298.78  PRESS =  -885.9
 Etot   =    -29416.5619  EKtot   =      6778.3723  EPtot      =    -36194.9342
 BOND   =         2.1340  ANGLE   =         7.8549  DIHED      =         0.0000
 1-4 NB =         0.0000  1-4 EEL =         0.0000  VDWAALS    =      5261.3962
 EELEC  =    -41466.3193  EHBOND  =         0.0000  RESTRAINT  =         0.0000
 EKCMT  =      3390.2694  VIRIAL  =      5778.8278  VOLUME     =    124843.3866
                                                    Density    =         0.9126
 DV/DL  =       952.6909
 ------------------------------------------------------------------------------

      R M S  F L U C T U A T I O N S

 NSTEP =     2000   TIME(PS) =     204.000  TEMP(K) =     2.16  PRESS =   166.2
 Etot   =       107.1722  EKtot   =        48.9928  EPtot      =       106.9401
 BOND   =         1.2804  ANGLE   =         1.0105  DIHED      =         0.0000
 1-4 NB =         0.0000  1-4 EEL =         0.0000  VDWAALS    =        94.8218
 EELEC  =       170.3445  EHBOND  =         0.0000  RESTRAINT  =         0.0000
 EKCMT  =        40.8700  VIRIAL  =       456.3711  VOLUME     =       563.3887
                                                    Density    =         0.0041
 DV/DL  =        21.2991
 ------------------------------------------------------------------------------

      DV/DL, AVERAGES OVER    1000 STEPS

 NSTEP =     2000   TIME(PS) =     204.000  TEMP(K) =     2.16  PRESS =     0.0
 Etot   =         0.0000  EKtot   =         0.0000  EPtot      =       952.6909
 BOND   =         0.0000  ANGLE   =         0.0000  DIHED      =         0.0000
 1-4 NB =         0.0000  1-4 EEL =         0.0000  VDWAALS    =       -37.5216
 EELEC  =       990.2125  EHBOND  =         0.0000  RESTRAINT  =         0.0000
 EKCMT  =         0.0000  VIRIAL  =         0.0000  VOLUME     =         0.0000
                                                    Density    =         0.0000
 DV/DL  =       952.6909
 ------------------------------------------------------------------------------

      A V E R A G E S   O V E R    1000 S T E P S

 NSTEP =   500000   TIME(PS) =    1200.000  TEMP(K) =   300.81  PRESS =    -9.5
 Etot   =    -29856.9294  EKtot   =      6824.4362  EPtot      =    -36681.3655
 BOND   =         1.8533  ANGLE   =         8.5648  DIHED      =         0.0000
 1-4 NB =         0.0000  1-4 EEL =         0.0000  VDWAALS    =      5429.3455
 EELEC  =    -42121.1291  EHBOND  =         0.0000  RESTRAINT  =         0.0000
 EKCMT  =      3414.9124  VIRIAL  =      3438.6368  VOLUME     =    115618.4309
                                                    Density    =         0.9854
 DV/DL  =       944.7343
 ------------------------------------------------------------------------------

      R M S  F L U C T U A T I O N S

 NSTEP =   500000   TIME(PS) =    1200.000  TEMP(K) =     2.39  PRESS =   183.5
 Etot   =        81.1690  EKtot   =        54.1804  EPtot      =        75.4128
 BOND   =         1.1353  ANGLE   =         1.3393  DIHED      =         0.0000
 1-4 NB =         0.0000  1-4 EEL =         0.0000  VDWAALS    =        95.8902
 EELEC  =       129.1982  EHBOND  =         0.0000  RESTRAINT  =         0.0000
 EKCMT  =        36.9785  VIRIAL  =       458.7095  VOLUME     =        29.9210
                                                    Density    =         0.0003
 DV/DL  =        19.5414
 ------------------------------------------------------------------------------

      A V E R A G E S   O V E R    1000 S T E P S

 NSTEP =   500000   TIME(PS) =    1200.000  TEMP(K) =   300.81  PRESS =    -9.5
 Etot   =    -29856.9294  EKtot   =      6824.4362  EPtot      =    -36681.3655
 BOND   =         1.8533  ANGLE   =         8.5648  DIHED      =         0.0000
 1-4 NB =         0.0000  1-4 EEL =         0.0000  VDWAALS    =      5429.3455
 EELEC  =    -42121.1291  EHBOND  =         0.0000  RESTRAINT  =         0.0000
 EKCMT  =      3414.9124  VIRIAL  =      3438.6368  VOLUME     =    115618.4309
                                                    Density    =         0.9854
 DV/DL  =       944.7343
 ------------------------------------------------------------------------------

      R M S  F L U C T U A T I O N S

 NSTEP =   500000   TIME(PS) =    1200.000  TEMP(K) =     2.39  PRESS =   183.5
 Etot   =        81.1690  EKtot   =        54.1804  EPtot      =        75.4128
 BOND   =         1.1353  ANGLE   =         1.3393  DIHED      =         0.0000
 1-4 NB =         0.0000  1-4 EEL =         0.0000  VDWAALS    =        95.8902
 EELEC  =       129.1982  EHBOND  =         0.0000  RESTRAINT  =         0.0000
 EKCMT  =        36.9785  VIRIAL  =       458.7095  VOLUME     =        29.9210
                                                    Density    =         0.0003
 DV/DL  =        19.5414
 ------------------------------------------------------------------------------

      DV/DL, AVERAGES OVER    1000 STEPS

 NSTEP =   500000   TIME(PS) =    1200.000  TEMP(K) =     2.39  PRESS =     0.0
 Etot   =         0.0000  EKtot   =         0.0000  EPtot      =       944.7343
 BOND   =         0.0000  ANGLE   =         0.0000  DIHED      =         0.0000
 1-4 NB =         0.0000  1-4 EEL =         0.0000  VDWAALS    =       -34.5236
 EELEC  =       979.2579  EHBOND  =         0.0000  RESTRAINT  =         0.0000
 EKCMT  =         0.0000  VIRIAL  =         0.0000  VOLUME     =         0.0000
                                                    Density    =         0.0000
 DV/DL  =       944.7343
 ------------------------------------------------------------------------------

      A V E R A G E S   O V E R  500000 S T E P S

 NSTEP =   500000   TIME(PS) =    1200.000  TEMP(K) =   300.06  PRESS =   -10.5
 Etot   =    -29931.2585  EKtot   =      6807.3503  EPtot      =    -36738.6087
 BOND   =         2.0982  ANGLE   =         7.9896  DIHED      =         0.0000
 1-4 NB =         0.0000  1-4 EEL =         0.0000  VDWAALS    =      5455.7531
 EELEC  =    -42204.4496  EHBOND  =         0.0000  RESTRAINT  =         0.0000
 EKCMT  =      3413.7676  VIRIAL  =      3441.5120  VOLUME     =    115708.5302
                                                    Density    =         0.9847
 DV/DL  =       959.2160
 ------------------------------------------------------------------------------

      R M S  F L U C T U A T I O N S

 NSTEP =   500000   TIME(PS) =    1200.000  TEMP(K) =     2.80  PRESS =   195.0
 Etot   =       122.9387  EKtot   =        63.5351  EPtot      =       104.8341
 BOND   =         1.3502  ANGLE   =         1.0984  DIHED      =         0.0000
 1-4 NB =         0.0000  1-4 EEL =         0.0000  VDWAALS    =        93.7753
 EELEC  =       161.3668  EHBOND  =         0.0000  RESTRAINT  =         0.0000
 EKCMT  =        45.2211  VIRIAL  =       491.4236  VOLUME     =       845.0463
                                                    Density    =         0.0067
 DV/DL  =        23.6276
 ------------------------------------------------------------------------------

      A V E R A G E S   O V E R  500000 S T E P S

 NSTEP =   500000   TIME(PS) =    1200.000  TEMP(K) =   300.06  PRESS =   -10.5
 Etot   =    -29931.2585  EKtot   =      6807.3503  EPtot      =    -36738.6087
 BOND   =         2.0982  ANGLE   =         7.9896  DIHED      =         0.0000
 1-4 NB =         0.0000  1-4 EEL =         0.0000  VDWAALS    =      5455.7531
 EELEC  =    -42204.4496  EHBOND  =         0.0000  RESTRAINT  =         0.0000
 EKCMT  =      3413.7676  VIRIAL  =      3441.5120  VOLUME     =    115708.5302
                                                    Density    =         0.9847
 DV/DL  =       959.2160
 ------------------------------------------------------------------------------

      R M S  F L U C T U A T I O N S

 NSTEP =   500000   TIME(PS) =    1200.000  TEMP(K) =     2.80  PRESS =   195.0
 Etot   =       122.9387  EKtot   =        63.5351  EPtot      =       104.8341
 BOND   =         1.3502  ANGLE   =         1.0984  DIHED      =         0.0000
 1-4 NB =         0.0000  1-4 EEL =         0.0000  VDWAALS    =        93.7753
 EELEC  =       161.3668  EHBOND  =         0.0000  RESTRAINT  =         0.0000
 EKCMT  =        45.2211  VIRIAL  =       491.4236  VOLUME     =       845.0463
                                                    Density    =         0.0067
 DV/DL  =        23.6276
 ------------------------------------------------------------------------------

      DV/DL, AVERAGES OVER  500000 STEPS

 NSTEP =   500000   TIME(PS) =    1200.000  TEMP(K) =     2.80  PRESS =     0.0
 Etot   =         0.0000  EKtot   =         0.0000  EPtot      =       959.2160
 BOND   =         0.0000  ANGLE   =         0.0000  DIHED      =         0.0000
 1-4 NB =         0.0000  1-4 EEL =         0.0000  VDWAALS    =       -36.2920
 EELEC  =       995.5080  EHBOND  =         0.0000  RESTRAINT  =         0.0000
 EKCMT  =         0.0000  VIRIAL  =         0.0000  VOLUME     =         0.0000
                                                    Density    =         0.0000
 DV/DL  =       959.2160
 ------------------------------------------------------------------------------
