-------------------------------------------------------
          Amber 20 PMEMD                              2020
          -------------------------------------------------------

  [-O]verwriting output

File Assignments:

 Here is the input file:

 &cntrl
   nstlim=1000000, nscm=1000,
   ntx=1, irest=0, ntpr=1000,
   tempi=300.0, temp0=300.0, ntt=3, gamma_ln=2.0,
   ntb=1, igb=0, cut=10.0,
   dt=0.001, ig=-1,
   ntc=1, ntf=1,
   iwrap=0,
   ntwr=1000, ntwx=50000, ntave=1000,
   ioutfm=1, ntwv=-1,
   ifsc = 0, icfe=1,
   clambda=0.43738,
   timask1=':1',
   timask2=':2', crgmask = ':2',
/

Note: ig = -1. Setting random seed to   720545 based on wallclock time in
      microseconds.

--------------------------------------------------------------------------------
   1.  RESOURCE   USE:
--------------------------------------------------------------------------------

 getting box info from netcdf restart file
 NATOM  =      10 NTYPES =       4 NBONH =       0 MBONA  =       8
 NTHETH =       0 MTHETA =      12 NPHIH =       0 MPHIA  =       0
 NHPARM =       0 NPARM  =       0 NNB   =      22 NRES   =       2
 NBONA  =       8 NTHETA =      12 NPHIA =       0 NUMBND =       1
 NUMANG =       1 NPTRA  =       0 NATYP =       4 NPHB   =       1
 IFBOX  =       2 NMXRS  =       5 IFCAP =       0 NEXTRA =       0
 NCOPY  =       0

     BOX TYPE: TRUNCATED OCTAHEDRON

--------------------------------------------------------------------------------
   2.  CONTROL  DATA  FOR  THE  RUN
--------------------------------------------------------------------------------

default_name

General flags:
     imin    =       0, nmropt  =       0

Nature and format of input:
     ntx     =       1, irest   =       0, ntrx    =       1

Nature and format of output:
     ntxo    =       2, ntpr    =    1000, ntrx    =       1, ntwr    =    1000
     iwrap   =       0, ntwx    =   50000, ntwv    =      -1, ntwe    =       0
     ioutfm  =       1, ntwprt  =       0, idecomp =       0, rbornstat=      0

Potential function:
     ntf     =       1, ntb     =       1, igb     =       0, nsnb    =      25
     ipol    =       0, gbsa    =       0, iesp    =       0
     dielc   =   1.00000, cut     =  10.00000, intdiel =   1.00000

Frozen or restrained atoms:
     ibelly  =       0, ntr     =       0

Molecular dynamics:
     nstlim  =   1000000, nscm    =      1000, nrespa  =         1
     t       =   0.00000, dt      =   0.00100, vlimit  =  -1.00000

Langevin dynamics temperature regulation:
     ig      =  720545
     temp0   = 300.00000, tempi   = 300.00000, gamma_ln=   2.00000

Free energy options:
     icfe    =       1, ifsc    =       0, klambda =       1
     clambda =  0.4374, scalpha =  0.5000, scbeta  = 12.0000
     sceeorder =       2
     dynlmb =  0.0000 logdvdl =       0

Ewald parameters:
     verbose =       0, ew_type =       0, nbflag  =       1, use_pme =       1
     vdwmeth =       1, eedmeth =       1, netfrc  =       1
     Box X =   55.004   Box Y =   55.004   Box Z =   55.004
     Alpha =  109.471   Beta  =  109.471   Gamma =  109.471
     NFFT1 =   56       NFFT2 =   56       NFFT3 =   56
     Cutoff=   10.000   Tol   =0.100E-04
     Ewald Coefficient =  0.27511
     Interpolation order =    4
     TI Mask 1 :1; matches      5 atoms
     TI Mask 2 :2; matches      5 atoms
     TI region 1:       5 atoms
     TI region 2:       5 atoms
Removing charge of       1.4352 from atom       6
Removing charge of      -1.1088 from atom       7
Removing charge of      -1.1088 from atom       8
Removing charge of      -1.1088 from atom       9
Removing charge of      -1.1088 from atom      10
Total charge of  -2.99999999 removed from       5 atoms
     Checking for mismatched coordinates.

--------------------------------------------------------------------------------
   3.  ATOMIC COORDINATES AND VELOCITIES
--------------------------------------------------------------------------------

default_name
 begin time read from input coords =     0.000 ps

 Number of triangulated 3-point waters found:        0

     Sum of charges for TI region  1 =  -2.99999999
     Skip neutralizing charges...

     Sum of charges for TI region  2 =   0.00000000
     Skip neutralizing charges...

--------------------------------------------------------------------------------
   4.  RESULTS
 NSTEP =        0   TIME(PS) =       0.000  TEMP(K) =   374.93  PRESS =     0.0
 Etot   =       -36.2420  EKtot   =         5.5879  EPtot      =       -41.8299
 BOND   =         0.0000  ANGLE   =         6.2592  DIHED      =         0.0000
 1-4 NB =         0.0000  1-4 EEL =         0.0000  VDWAALS    =        -0.0003
 EELEC  =       -48.0888  EHBOND  =         0.0000  RESTRAINT  =         0.0000
 DV/DL  =        85.4730
 ------------------------------------------------------------------------------

      A V E R A G E S   O V E R    1000 S T E P S

 NSTEP =     1000   TIME(PS) =       1.000  TEMP(K) =   313.51  PRESS =     0.0
 Etot   =       -34.7413  EKtot   =         4.6725  EPtot      =       -39.4137
 BOND   =         0.8525  ANGLE   =         7.8136  DIHED      =         0.0000
 1-4 NB =         0.0000  1-4 EEL =         0.0000  VDWAALS    =        -0.0003
 EELEC  =       -48.0795  EHBOND  =         0.0000  RESTRAINT  =         0.0000
 DV/DL  =        85.4576
 ------------------------------------------------------------------------------

      R M S  F L U C T U A T I O N S

 NSTEP =     1000   TIME(PS) =       1.000  TEMP(K) =    83.15  PRESS =     0.0
 Etot   =         1.2091  EKtot   =         1.2392  EPtot      =         1.0822
 BOND   =         0.6257  ANGLE   =         0.8074  DIHED      =         0.0000
 1-4 NB =         0.0000  1-4 EEL =         0.0000  VDWAALS    =         0.0000
 EELEC  =         0.0065  EHBOND  =         0.0000  RESTRAINT  =         0.0000
 DV/DL  =         0.0251
 ------------------------------------------------------------------------------

      A V E R A G E S   O V E R    1000 S T E P S

 NSTEP =     1000   TIME(PS) =       1.000  TEMP(K) =   313.35  PRESS =     0.0
 Etot   =       -34.7436  EKtot   =         4.6702  EPtot      =       -39.4137
 BOND   =         0.8525  ANGLE   =         7.8136  DIHED      =         0.0000
 1-4 NB =         0.0000  1-4 EEL =         0.0000  VDWAALS    =        -0.0003
 EELEC  =       -48.0795  EHBOND  =         0.0000  RESTRAINT  =         0.0000
 DV/DL  =        85.4576
 ------------------------------------------------------------------------------

      R M S  F L U C T U A T I O N S

 NSTEP =     1000   TIME(PS) =       1.000  TEMP(K) =    83.46  PRESS =     0.0
 Etot   =         1.2104  EKtot   =         1.2439  EPtot      =         1.0822
 BOND   =         0.6257  ANGLE   =         0.8074  DIHED      =         0.0000
 1-4 NB =         0.0000  1-4 EEL =         0.0000  VDWAALS    =         0.0000
 EELEC  =         0.0065  EHBOND  =         0.0000  RESTRAINT  =         0.0000
 DV/DL  =         0.0251
 ------------------------------------------------------------------------------

      DV/DL, AVERAGES OVER    1000 STEPS

 NSTEP =     1000   TIME(PS) =       1.000  TEMP(K) =    83.46  PRESS =     0.0
 Etot   =         0.0000  EKtot   =         0.0000  EPtot      =        85.4576
 BOND   =         0.0007  ANGLE   =         0.0004  DIHED      =         0.0000
 1-4 NB =         0.0000  1-4 EEL =         0.0000  VDWAALS    =         0.0000
 EELEC  =        85.4565  EHBOND  =         0.0000  RESTRAINT  =         0.0000
 DV/DL  =        85.4576
 ------------------------------------------------------------------------------

      A V E R A G E S   O V E R    1000 S T E P S

 NSTEP =     2000   TIME(PS) =       2.000  TEMP(K) =   310.45  PRESS =     0.0
 Etot   =       -34.4408  EKtot   =         4.6269  EPtot      =       -39.0678
 BOND   =         1.6699  ANGLE   =         7.3400  DIHED      =         0.0000
 1-4 NB =         0.0000  1-4 EEL =         0.0000  VDWAALS    =        -0.0003
 EELEC  =       -48.0774  EHBOND  =         0.0000  RESTRAINT  =         0.0000
 DV/DL  =        85.4548
 ------------------------------------------------------------------------------

      R M S  F L U C T U A T I O N S

 NSTEP =     2000   TIME(PS) =       2.000  TEMP(K) =    91.45  PRESS =     0.0
 Etot   =         1.4219  EKtot   =         1.3630  EPtot      =         0.9842
 BOND   =         0.8530  ANGLE   =         0.6181  DIHED      =         0.0000
 1-4 NB =         0.0000  1-4 EEL =         0.0000  VDWAALS    =         0.0000
 EELEC  =         0.0056  EHBOND  =         0.0000  RESTRAINT  =         0.0000
 DV/DL  =         0.0310
 ------------------------------------------------------------------------------

      A V E R A G E S   O V E R    1000 S T E P S

 NSTEP =     2000   TIME(PS) =       2.000  TEMP(K) =   310.43  PRESS =     0.0
 Etot   =       -34.4412  EKtot   =         4.6266  EPtot      =       -39.0678
 BOND   =         1.6699  ANGLE   =         7.3400  DIHED      =         0.0000
 1-4 NB =         0.0000  1-4 EEL =         0.0000  VDWAALS    =        -0.0003
 EELEC  =       -48.0774  EHBOND  =         0.0000  RESTRAINT  =         0.0000
 DV/DL  =        85.4548
 ------------------------------------------------------------------------------

      R M S  F L U C T U A T I O N S

 NSTEP =     2000   TIME(PS) =       2.000  TEMP(K) =    91.47  PRESS =     0.0
 Etot   =         1.4215  EKtot   =         1.3633  EPtot      =         0.9842
 BOND   =         0.8530  ANGLE   =         0.6181  DIHED      =         0.0000
 1-4 NB =         0.0000  1-4 EEL =         0.0000  VDWAALS    =         0.0000
 EELEC  =         0.0056  EHBOND  =         0.0000  RESTRAINT  =         0.0000
 DV/DL  =         0.0310
 ------------------------------------------------------------------------------

      DV/DL, AVERAGES OVER    1000 STEPS

 NSTEP =     2000   TIME(PS) =       2.000  TEMP(K) =    91.47  PRESS =     0.0
 Etot   =         0.0000  EKtot   =         0.0000  EPtot      =        85.4548
 BOND   =         0.0020  ANGLE   =        -0.0000  DIHED      =         0.0000
 1-4 NB =         0.0000  1-4 EEL =         0.0000  VDWAALS    =         0.0000
 EELEC  =        85.4527  EHBOND  =         0.0000  RESTRAINT  =         0.0000
 DV/DL  =        85.4548
 ------------------------------------------------------------------------------

      A V E R A G E S   O V E R    1000 S T E P S

 NSTEP =  1000000   TIME(PS) =    1000.000  TEMP(K) =   276.68  PRESS =     0.0
 Etot   =       -34.7814  EKtot   =         4.1236  EPtot      =       -38.9050
 BOND   =         1.2089  ANGLE   =         7.9700  DIHED      =         0.0000
 1-4 NB =         0.0000  1-4 EEL =         0.0000  VDWAALS    =        -0.0003
 EELEC  =       -48.0836  EHBOND  =         0.0000  RESTRAINT  =         0.0000
 DV/DL  =        85.4632
 ------------------------------------------------------------------------------

      R M S  F L U C T U A T I O N S

 NSTEP =  1000000   TIME(PS) =    1000.000  TEMP(K) =    79.36  PRESS =     0.0
 Etot   =         1.3333  EKtot   =         1.1827  EPtot      =         0.9219
 BOND   =         0.6403  ANGLE   =         0.6920  DIHED      =         0.0000
 1-4 NB =         0.0000  1-4 EEL =         0.0000  VDWAALS    =         0.0000
 EELEC  =         0.0057  EHBOND  =         0.0000  RESTRAINT  =         0.0000
 DV/DL  =         0.0265
 ------------------------------------------------------------------------------

      A V E R A G E S   O V E R    1000 S T E P S

 NSTEP =  1000000   TIME(PS) =    1000.000  TEMP(K) =   276.47  PRESS =     0.0
 Etot   =       -34.7846  EKtot   =         4.1204  EPtot      =       -38.9050
 BOND   =         1.2089  ANGLE   =         7.9700  DIHED      =         0.0000
 1-4 NB =         0.0000  1-4 EEL =         0.0000  VDWAALS    =        -0.0003
 EELEC  =       -48.0836  EHBOND  =         0.0000  RESTRAINT  =         0.0000
 DV/DL  =        85.4632
 ------------------------------------------------------------------------------

      R M S  F L U C T U A T I O N S

 NSTEP =  1000000   TIME(PS) =    1000.000  TEMP(K) =    79.25  PRESS =     0.0
 Etot   =         1.3310  EKtot   =         1.1811  EPtot      =         0.9219
 BOND   =         0.6403  ANGLE   =         0.6920  DIHED      =         0.0000
 1-4 NB =         0.0000  1-4 EEL =         0.0000  VDWAALS    =         0.0000
 EELEC  =         0.0057  EHBOND  =         0.0000  RESTRAINT  =         0.0000
 DV/DL  =         0.0265
 ------------------------------------------------------------------------------

      DV/DL, AVERAGES OVER    1000 STEPS

 NSTEP =  1000000   TIME(PS) =    1000.000  TEMP(K) =    79.25  PRESS =     0.0
 Etot   =         0.0000  EKtot   =         0.0000  EPtot      =        85.4632
 BOND   =        -0.0005  ANGLE   =        -0.0001  DIHED      =         0.0000
 1-4 NB =         0.0000  1-4 EEL =         0.0000  VDWAALS    =         0.0000
 EELEC  =        85.4638  EHBOND  =         0.0000  RESTRAINT  =         0.0000
 DV/DL  =        85.4632
 ------------------------------------------------------------------------------

      A V E R A G E S   O V E R 1000000 S T E P S

 NSTEP =  1000000   TIME(PS) =    1000.000  TEMP(K) =   305.34  PRESS =     0.0
 Etot   =       -34.4986  EKtot   =         4.5508  EPtot      =       -39.0494
 BOND   =         1.2557  ANGLE   =         7.7759  DIHED      =         0.0000
 1-4 NB =         0.0000  1-4 EEL =         0.0000  VDWAALS    =        -0.0003
 EELEC  =       -48.0807  EHBOND  =         0.0000  RESTRAINT  =         0.0000
 DV/DL  =        85.4586
 ------------------------------------------------------------------------------

      R M S  F L U C T U A T I O N S

 NSTEP =  1000000   TIME(PS) =    1000.000  TEMP(K) =   110.21  PRESS =     0.0
 Etot   =         2.0627  EKtot   =         1.6426  EPtot      =         1.2902
 BOND   =         0.8868  ANGLE   =         0.9499  DIHED      =         0.0000
 1-4 NB =         0.0000  1-4 EEL =         0.0000  VDWAALS    =         0.0000
 EELEC  =         0.0062  EHBOND  =         0.0000  RESTRAINT  =         0.0000
 DV/DL  =         0.0274
 ------------------------------------------------------------------------------

      A V E R A G E S   O V E R 1000000 S T E P S

 NSTEP =  1000000   TIME(PS) =    1000.000  TEMP(K) =   305.34  PRESS =     0.0
 Etot   =       -34.4987  EKtot   =         4.5507  EPtot      =       -39.0494
 BOND   =         1.2557  ANGLE   =         7.7759  DIHED      =         0.0000
 1-4 NB =         0.0000  1-4 EEL =         0.0000  VDWAALS    =        -0.0003
 EELEC  =       -48.0807  EHBOND  =         0.0000  RESTRAINT  =         0.0000
 DV/DL  =        85.4586
 ------------------------------------------------------------------------------

      R M S  F L U C T U A T I O N S

 NSTEP =  1000000   TIME(PS) =    1000.000  TEMP(K) =   110.21  PRESS =     0.0
 Etot   =         2.0629  EKtot   =         1.6426  EPtot      =         1.2902
 BOND   =         0.8868  ANGLE   =         0.9499  DIHED      =         0.0000
 1-4 NB =         0.0000  1-4 EEL =         0.0000  VDWAALS    =         0.0000
 EELEC  =         0.0062  EHBOND  =         0.0000  RESTRAINT  =         0.0000
 DV/DL  =         0.0274
 ------------------------------------------------------------------------------

      DV/DL, AVERAGES OVER 1000000 STEPS

 NSTEP =  1000000   TIME(PS) =    1000.000  TEMP(K) =   110.21  PRESS =     0.0
 Etot   =         0.0000  EKtot   =         0.0000  EPtot      =        85.4586
 BOND   =         0.0000  ANGLE   =         0.0000  DIHED      =         0.0000
 1-4 NB =         0.0000  1-4 EEL =         0.0000  VDWAALS    =         0.0000
 EELEC  =        85.4586  EHBOND  =         0.0000  RESTRAINT  =         0.0000
 DV/DL  =        85.4586
 ------------------------------------------------------------------------------
