-------------------------------------------------------
          Amber 20 PMEMD                              2020
          -------------------------------------------------------

  [-O]verwriting output

File Assignments:

 Here is the input file:

 &cntrl
   nstlim=500000, nscm=1000,
   ntx=5, irest=1, ntpr=1000,
   tempi=300.0, temp0=300.0, ntt=3, gamma_ln=2.0,
   ntp=1, pres0=1.01325, taup=5.0,
   ntb=2, igb=0, cut=10.0,
   dt=0.002, ig=-1,
   ntc=2, ntf=2,
   iwrap=0,
   ntwr=1000, ntwx=50000, ntave=1000,
   ioutfm=1, ntwv=-1,
   ifsc = 0, icfe=1,
   clambda=0.20634,
   timask1=':1',
   timask2=':2', crgmask = ':2',
/

Note: ig = -1. Setting random seed to   123820 based on wallclock time in
      microseconds.

--------------------------------------------------------------------------------
   1.  RESOURCE   USE:
--------------------------------------------------------------------------------

 getting box info from netcdf restart file
 NATOM  =   11419 NTYPES =       4 NBONH =   11409 MBONA  =       8
 NTHETH =       0 MTHETA =      12 NPHIH =       0 MPHIA  =       0
 NHPARM =       0 NPARM  =       0 NNB   =   15234 NRES   =    3805
 NBONA  =       8 NTHETA =      12 NPHIA =       0 NUMBND =       3
 NUMANG =       1 NPTRA  =       0 NATYP =       4 NPHB   =       1
 IFBOX  =       2 NMXRS  =       5 IFCAP =       0 NEXTRA =       0
 NCOPY  =       0

     BOX TYPE: TRUNCATED OCTAHEDRON

--------------------------------------------------------------------------------
   2.  CONTROL  DATA  FOR  THE  RUN
--------------------------------------------------------------------------------

default_name

General flags:
     imin    =       0, nmropt  =       0

Nature and format of input:
     ntx     =       5, irest   =       1, ntrx    =       1

Nature and format of output:
     ntxo    =       2, ntpr    =    1000, ntrx    =       1, ntwr    =    1000
     iwrap   =       0, ntwx    =   50000, ntwv    =      -1, ntwe    =       0
     ioutfm  =       1, ntwprt  =       0, idecomp =       0, rbornstat=      0

Potential function:
     ntf     =       2, ntb     =       2, igb     =       0, nsnb    =      25
     ipol    =       0, gbsa    =       0, iesp    =       0
     dielc   =   1.00000, cut     =  10.00000, intdiel =   1.00000

Frozen or restrained atoms:
     ibelly  =       0, ntr     =       0

Molecular dynamics:
     nstlim  =    500000, nscm    =      1000, nrespa  =         1
     t       =   0.00000, dt      =   0.00200, vlimit  =  -1.00000

Langevin dynamics temperature regulation:
     ig      =  123820
     temp0   = 300.00000, tempi   = 300.00000, gamma_ln=   2.00000

Pressure regulation:
     ntp     =       1
     pres0   =   1.01325, comp    =  44.60000, taup    =   5.00000

SHAKE:
     ntc     =       2, jfastw  =       0
     tol     =   0.00001

Free energy options:
     icfe    =       1, ifsc    =       0, klambda =       1
     clambda =  0.2063, scalpha =  0.5000, scbeta  = 12.0000
     sceeorder =       2
     dynlmb =  0.0000 logdvdl =       0

Ewald parameters:
     verbose =       0, ew_type =       0, nbflag  =       1, use_pme =       1
     vdwmeth =       1, eedmeth =       1, netfrc  =       1
     Box X =   55.004   Box Y =   55.004   Box Z =   55.004
     Alpha =  109.471   Beta  =  109.471   Gamma =  109.471
     NFFT1 =   56       NFFT2 =   56       NFFT3 =   56
     Cutoff=   10.000   Tol   =0.100E-04
     Ewald Coefficient =  0.27511
     Interpolation order =    4
     TI Mask 1 :1; matches      5 atoms
     TI Mask 2 :2; matches      5 atoms
     TI region 1:   11414 atoms
     TI region 2:   11414 atoms
Removing charge of       1.4352 from atom       6
Removing charge of      -1.1088 from atom       7
Removing charge of      -1.1088 from atom       8
Removing charge of      -1.1088 from atom       9
Removing charge of      -1.1088 from atom      10
Total charge of  -2.99999999 removed from       5 atoms
     Checking for mismatched coordinates.

--------------------------------------------------------------------------------
   3.  ATOMIC COORDINATES AND VELOCITIES
--------------------------------------------------------------------------------

default_name
 begin time read from input coords =   200.000 ps

 Number of triangulated 3-point waters found:     3803

     Sum of charges for TI region  1 =  -2.99999999
     Skip neutralizing charges...

     Sum of charges for TI region  2 =   0.00000000
     Skip neutralizing charges...

--------------------------------------------------------------------------------
   4.  RESULTS
 NSTEP =     1000   TIME(PS) =     202.000  TEMP(K) =   300.43  PRESS = -1109.9
 Etot   =    -29189.6779  EKtot   =      6815.6827  EPtot      =    -36005.3607
 BOND   =         1.5234  ANGLE   =         6.8586  DIHED      =         0.0000
 1-4 NB =         0.0000  1-4 EEL =         0.0000  VDWAALS    =      5142.3379
 EELEC  =    -41156.0805  EHBOND  =         0.0000  RESTRAINT  =         0.0000
 EKCMT  =      3444.2078  VIRIAL  =      6457.2764  VOLUME     =    125727.5689
                                                    Density    =         0.9062
 DV/DL  =       928.6177
 ------------------------------------------------------------------------------

      A V E R A G E S   O V E R    1000 S T E P S

 NSTEP =     1000   TIME(PS) =     202.000  TEMP(K) =   299.84  PRESS = -1049.2
 Etot   =    -29198.4384  EKtot   =      6802.2959  EPtot      =    -36000.7342
 BOND   =         1.4635  ANGLE   =         7.9609  DIHED      =         0.0000
 1-4 NB =         0.0000  1-4 EEL =         0.0000  VDWAALS    =      5219.0462
 EELEC  =    -41229.2049  EHBOND  =         0.0000  RESTRAINT  =         0.0000
 EKCMT  =      3416.1664  VIRIAL  =      6291.2195  VOLUME     =    126863.1576
                                                    Density    =         0.8981
 DV/DL  =       962.8134
 ------------------------------------------------------------------------------

      R M S  F L U C T U A T I O N S

 NSTEP =     1000   TIME(PS) =     202.000  TEMP(K) =     2.33  PRESS =   184.1
 Etot   =        72.1948  EKtot   =        52.8413  EPtot      =        81.6440
 BOND   =         0.9742  ANGLE   =         1.0482  DIHED      =         0.0000
 1-4 NB =         0.0000  1-4 EEL =         0.0000  VDWAALS    =        99.2838
 EELEC  =       154.5239  EHBOND  =         0.0000  RESTRAINT  =         0.0000
 EKCMT  =        40.0229  VIRIAL  =       502.9285  VOLUME     =       665.2521
                                                    Density    =         0.0047
 DV/DL  =        16.9907
 ------------------------------------------------------------------------------

      A V E R A G E S   O V E R    1000 S T E P S

 NSTEP =     1000   TIME(PS) =     202.000  TEMP(K) =   299.84  PRESS = -1049.2
 Etot   =    -29198.4384  EKtot   =      6802.2959  EPtot      =    -36000.7342
 BOND   =         1.4635  ANGLE   =         7.9609  DIHED      =         0.0000
 1-4 NB =         0.0000  1-4 EEL =         0.0000  VDWAALS    =      5219.0462
 EELEC  =    -41229.2049  EHBOND  =         0.0000  RESTRAINT  =         0.0000
 EKCMT  =      3416.1664  VIRIAL  =      6291.2195  VOLUME     =    126863.1576
                                                    Density    =         0.8981
 DV/DL  =       962.8134
 ------------------------------------------------------------------------------

      R M S  F L U C T U A T I O N S

 NSTEP =     1000   TIME(PS) =     202.000  TEMP(K) =     2.33  PRESS =   184.1
 Etot   =        72.1948  EKtot   =        52.8413  EPtot      =        81.6440
 BOND   =         0.9742  ANGLE   =         1.0482  DIHED      =         0.0000
 1-4 NB =         0.0000  1-4 EEL =         0.0000  VDWAALS    =        99.2838
 EELEC  =       154.5239  EHBOND  =         0.0000  RESTRAINT  =         0.0000
 EKCMT  =        40.0229  VIRIAL  =       502.9285  VOLUME     =       665.2521
                                                    Density    =         0.0047
 DV/DL  =        16.9907
 ------------------------------------------------------------------------------

      DV/DL, AVERAGES OVER    1000 STEPS

 NSTEP =     1000   TIME(PS) =     202.000  TEMP(K) =     2.33  PRESS =     0.0
 Etot   =         0.0000  EKtot   =         0.0000  EPtot      =       962.8134
 BOND   =         0.0000  ANGLE   =         0.0000  DIHED      =         0.0000
 1-4 NB =         0.0000  1-4 EEL =         0.0000  VDWAALS    =         0.0000
 EELEC  =       962.8134  EHBOND  =         0.0000  RESTRAINT  =         0.0000
 EKCMT  =         0.0000  VIRIAL  =         0.0000  VOLUME     =         0.0000
                                                    Density    =         0.0000
 DV/DL  =       962.8134
 ------------------------------------------------------------------------------

      A V E R A G E S   O V E R    1000 S T E P S

 NSTEP =     2000   TIME(PS) =     204.000  TEMP(K) =   299.67  PRESS = -1016.8
 Etot   =    -29271.3726  EKtot   =      6798.4661  EPtot      =    -36069.8387
 BOND   =         1.8126  ANGLE   =         7.8906  DIHED      =         0.0000
 1-4 NB =         0.0000  1-4 EEL =         0.0000  VDWAALS    =      5166.9512
 EELEC  =    -41246.4930  EHBOND  =         0.0000  RESTRAINT  =         0.0000
 EKCMT  =      3417.0040  VIRIAL  =      6152.1729  VOLUME     =    124585.8072
                                                    Density    =         0.9145
 DV/DL  =       955.1703
 ------------------------------------------------------------------------------

      R M S  F L U C T U A T I O N S

 NSTEP =     2000   TIME(PS) =     204.000  TEMP(K) =     2.46  PRESS =   144.2
 Etot   =        41.5425  EKtot   =        55.7183  EPtot      =        50.7025
 BOND   =         1.3201  ANGLE   =         0.9958  DIHED      =         0.0000
 1-4 NB =         0.0000  1-4 EEL =         0.0000  VDWAALS    =        75.9880
 EELEC  =        85.5838  EHBOND  =         0.0000  RESTRAINT  =         0.0000
 EKCMT  =        40.8168  VIRIAL  =       391.8140  VOLUME     =       658.1913
                                                    Density    =         0.0048
 DV/DL  =        23.2282
 ------------------------------------------------------------------------------

      A V E R A G E S   O V E R    1000 S T E P S

 NSTEP =     2000   TIME(PS) =     204.000  TEMP(K) =   299.67  PRESS = -1016.8
 Etot   =    -29271.3726  EKtot   =      6798.4661  EPtot      =    -36069.8387
 BOND   =         1.8126  ANGLE   =         7.8906  DIHED      =         0.0000
 1-4 NB =         0.0000  1-4 EEL =         0.0000  VDWAALS    =      5166.9512
 EELEC  =    -41246.4930  EHBOND  =         0.0000  RESTRAINT  =         0.0000
 EKCMT  =      3417.0040  VIRIAL  =      6152.1729  VOLUME     =    124585.8072
                                                    Density    =         0.9145
 DV/DL  =       955.1703
 ------------------------------------------------------------------------------

      R M S  F L U C T U A T I O N S

 NSTEP =     2000   TIME(PS) =     204.000  TEMP(K) =     2.46  PRESS =   144.2
 Etot   =        41.5425  EKtot   =        55.7183  EPtot      =        50.7025
 BOND   =         1.3201  ANGLE   =         0.9958  DIHED      =         0.0000
 1-4 NB =         0.0000  1-4 EEL =         0.0000  VDWAALS    =        75.9880
 EELEC  =        85.5838  EHBOND  =         0.0000  RESTRAINT  =         0.0000
 EKCMT  =        40.8168  VIRIAL  =       391.8140  VOLUME     =       658.1913
                                                    Density    =         0.0048
 DV/DL  =        23.2282
 ------------------------------------------------------------------------------

      DV/DL, AVERAGES OVER    1000 STEPS

 NSTEP =     2000   TIME(PS) =     204.000  TEMP(K) =     2.46  PRESS =     0.0
 Etot   =         0.0000  EKtot   =         0.0000  EPtot      =       955.1703
 BOND   =         0.0000  ANGLE   =         0.0000  DIHED      =         0.0000
 1-4 NB =         0.0000  1-4 EEL =         0.0000  VDWAALS    =         0.0000
 EELEC  =       955.1703  EHBOND  =         0.0000  RESTRAINT  =         0.0000
 EKCMT  =         0.0000  VIRIAL  =         0.0000  VOLUME     =         0.0000
                                                    Density    =         0.0000
 DV/DL  =       955.1703
 ------------------------------------------------------------------------------

      A V E R A G E S   O V E R    1000 S T E P S

 NSTEP =   500000   TIME(PS) =    1200.000  TEMP(K) =   299.44  PRESS =    21.9
 Etot   =    -30009.7746  EKtot   =      6793.2674  EPtot      =    -36803.0419
 BOND   =         1.6896  ANGLE   =         7.9308  DIHED      =         0.0000
 1-4 NB =         0.0000  1-4 EEL =         0.0000  VDWAALS    =      5484.3139
 EELEC  =    -42296.9763  EHBOND  =         0.0000  RESTRAINT  =         0.0000
 EKCMT  =      3391.8384  VIRIAL  =      3337.1731  VOLUME     =    115451.8588
                                                    Density    =         0.9868
 DV/DL  =       984.9190
 ------------------------------------------------------------------------------

      R M S  F L U C T U A T I O N S

 NSTEP =   500000   TIME(PS) =    1200.000  TEMP(K) =     2.27  PRESS =   163.4
 Etot   =        40.6389  EKtot   =        51.4995  EPtot      =        54.4518
 BOND   =         1.2039  ANGLE   =         0.9955  DIHED      =         0.0000
 1-4 NB =         0.0000  1-4 EEL =         0.0000  VDWAALS    =        81.9172
 EELEC  =       100.7488  EHBOND  =         0.0000  RESTRAINT  =         0.0000
 EKCMT  =        36.0151  VIRIAL  =       412.9919  VOLUME     =        25.3468
                                                    Density    =         0.0002
 DV/DL  =        22.8321
 ------------------------------------------------------------------------------

      A V E R A G E S   O V E R    1000 S T E P S

 NSTEP =   500000   TIME(PS) =    1200.000  TEMP(K) =   299.44  PRESS =    21.9
 Etot   =    -30009.7746  EKtot   =      6793.2674  EPtot      =    -36803.0419
 BOND   =         1.6896  ANGLE   =         7.9308  DIHED      =         0.0000
 1-4 NB =         0.0000  1-4 EEL =         0.0000  VDWAALS    =      5484.3139
 EELEC  =    -42296.9763  EHBOND  =         0.0000  RESTRAINT  =         0.0000
 EKCMT  =      3391.8384  VIRIAL  =      3337.1731  VOLUME     =    115451.8588
                                                    Density    =         0.9868
 DV/DL  =       984.9190
 ------------------------------------------------------------------------------

      R M S  F L U C T U A T I O N S

 NSTEP =   500000   TIME(PS) =    1200.000  TEMP(K) =     2.27  PRESS =   163.4
 Etot   =        40.6389  EKtot   =        51.4995  EPtot      =        54.4518
 BOND   =         1.2039  ANGLE   =         0.9955  DIHED      =         0.0000
 1-4 NB =         0.0000  1-4 EEL =         0.0000  VDWAALS    =        81.9172
 EELEC  =       100.7488  EHBOND  =         0.0000  RESTRAINT  =         0.0000
 EKCMT  =        36.0151  VIRIAL  =       412.9919  VOLUME     =        25.3468
                                                    Density    =         0.0002
 DV/DL  =        22.8321
 ------------------------------------------------------------------------------

      DV/DL, AVERAGES OVER    1000 STEPS

 NSTEP =   500000   TIME(PS) =    1200.000  TEMP(K) =     2.27  PRESS =     0.0
 Etot   =         0.0000  EKtot   =         0.0000  EPtot      =       984.9190
 BOND   =         0.0000  ANGLE   =         0.0000  DIHED      =         0.0000
 1-4 NB =         0.0000  1-4 EEL =         0.0000  VDWAALS    =         0.0000
 EELEC  =       984.9190  EHBOND  =         0.0000  RESTRAINT  =         0.0000
 EKCMT  =         0.0000  VIRIAL  =         0.0000  VOLUME     =         0.0000
                                                    Density    =         0.0000
 DV/DL  =       984.9190
 ------------------------------------------------------------------------------

      A V E R A G E S   O V E R  500000 S T E P S

 NSTEP =   500000   TIME(PS) =    1200.000  TEMP(K) =   300.11  PRESS =   -10.6
 Etot   =    -29920.9447  EKtot   =      6808.6284  EPtot      =    -36729.5731
 BOND   =         1.6938  ANGLE   =         7.8432  DIHED      =         0.0000
 1-4 NB =         0.0000  1-4 EEL =         0.0000  VDWAALS    =      5450.7037
 EELEC  =    -42189.8137  EHBOND  =         0.0000  RESTRAINT  =         0.0000
 EKCMT  =      3414.9962  VIRIAL  =      3443.0016  VOLUME     =    115713.9394
                                                    Density    =         0.9846
 DV/DL  =       969.1490
 ------------------------------------------------------------------------------

      R M S  F L U C T U A T I O N S

 NSTEP =   500000   TIME(PS) =    1200.000  TEMP(K) =     2.79  PRESS =   194.5
 Etot   =       124.9363  EKtot   =        63.2424  EPtot      =       107.0833
 BOND   =         1.1442  ANGLE   =         1.0095  DIHED      =         0.0000
 1-4 NB =         0.0000  1-4 EEL =         0.0000  VDWAALS    =        93.9689
 EELEC  =       164.1952  EHBOND  =         0.0000  RESTRAINT  =         0.0000
 EKCMT  =        44.6249  VIRIAL  =       492.0374  VOLUME     =       826.8266
                                                    Density    =         0.0066
 DV/DL  =        25.3861
 ------------------------------------------------------------------------------

      A V E R A G E S   O V E R  500000 S T E P S

 NSTEP =   500000   TIME(PS) =    1200.000  TEMP(K) =   300.11  PRESS =   -10.6
 Etot   =    -29920.9447  EKtot   =      6808.6284  EPtot      =    -36729.5731
 BOND   =         1.6938  ANGLE   =         7.8432  DIHED      =         0.0000
 1-4 NB =         0.0000  1-4 EEL =         0.0000  VDWAALS    =      5450.7037
 EELEC  =    -42189.8137  EHBOND  =         0.0000  RESTRAINT  =         0.0000
 EKCMT  =      3414.9962  VIRIAL  =      3443.0016  VOLUME     =    115713.9394
                                                    Density    =         0.9846
 DV/DL  =       969.1490
 ------------------------------------------------------------------------------

      R M S  F L U C T U A T I O N S

 NSTEP =   500000   TIME(PS) =    1200.000  TEMP(K) =     2.79  PRESS =   194.5
 Etot   =       124.9363  EKtot   =        63.2424  EPtot      =       107.0833
 BOND   =         1.1442  ANGLE   =         1.0095  DIHED      =         0.0000
 1-4 NB =         0.0000  1-4 EEL =         0.0000  VDWAALS    =        93.9689
 EELEC  =       164.1952  EHBOND  =         0.0000  RESTRAINT  =         0.0000
 EKCMT  =        44.6249  VIRIAL  =       492.0374  VOLUME     =       826.8266
                                                    Density    =         0.0066
 DV/DL  =        25.3861
 ------------------------------------------------------------------------------

      DV/DL, AVERAGES OVER  500000 STEPS

 NSTEP =   500000   TIME(PS) =    1200.000  TEMP(K) =     2.79  PRESS =     0.0
 Etot   =         0.0000  EKtot   =         0.0000  EPtot      =       969.1490
 BOND   =         0.0000  ANGLE   =         0.0000  DIHED      =         0.0000
 1-4 NB =         0.0000  1-4 EEL =         0.0000  VDWAALS    =         0.0000
 EELEC  =       969.1490  EHBOND  =         0.0000  RESTRAINT  =         0.0000
 EKCMT  =         0.0000  VIRIAL  =         0.0000  VOLUME     =         0.0000
                                                    Density    =         0.0000
 DV/DL  =       969.1490
 ------------------------------------------------------------------------------
