-------------------------------------------------------
          Amber 20 PMEMD                              2020
          -------------------------------------------------------

  [-O]verwriting output

File Assignments:

 Here is the input file:

 &cntrl
   nstlim=500000, nscm=1000,
   ntx=5, irest=1, ntpr=1000,
   tempi=300.0, temp0=300.0, ntt=3, gamma_ln=2.0,
   ntp=1, pres0=1.01325, taup=5.0,
   ntb=2, igb=0, cut=10.0,
   dt=0.002, ig=-1,
   ntc=2, ntf=2,
   iwrap=0,
   ntwr=1000, ntwx=50000, ntave=1000,
   ioutfm=1, ntwv=-1,
   ifsc = 0, icfe=1,
   clambda=0.88495,
   timask1=':1',
   timask2=':2',
/

Note: ig = -1. Setting random seed to   853317 based on wallclock time in
      microseconds.

--------------------------------------------------------------------------------
   1.  RESOURCE   USE:
--------------------------------------------------------------------------------

 getting box info from netcdf restart file
 NATOM  =   11419 NTYPES =       6 NBONH =   11409 MBONA  =       8
 NTHETH =       0 MTHETA =      12 NPHIH =       0 MPHIA  =       0
 NHPARM =       0 NPARM  =       0 NNB   =   15234 NRES   =    3805
 NBONA  =       8 NTHETA =      12 NPHIA =       0 NUMBND =       3
 NUMANG =       1 NPTRA  =       0 NATYP =       4 NPHB   =       1
 IFBOX  =       2 NMXRS  =       5 IFCAP =       0 NEXTRA =       0
 NCOPY  =       0

     BOX TYPE: TRUNCATED OCTAHEDRON

--------------------------------------------------------------------------------
   2.  CONTROL  DATA  FOR  THE  RUN
--------------------------------------------------------------------------------

default_name

General flags:
     imin    =       0, nmropt  =       0

Nature and format of input:
     ntx     =       5, irest   =       1, ntrx    =       1

Nature and format of output:
     ntxo    =       2, ntpr    =    1000, ntrx    =       1, ntwr    =    1000
     iwrap   =       0, ntwx    =   50000, ntwv    =      -1, ntwe    =       0
     ioutfm  =       1, ntwprt  =       0, idecomp =       0, rbornstat=      0

Potential function:
     ntf     =       2, ntb     =       2, igb     =       0, nsnb    =      25
     ipol    =       0, gbsa    =       0, iesp    =       0
     dielc   =   1.00000, cut     =  10.00000, intdiel =   1.00000

Frozen or restrained atoms:
     ibelly  =       0, ntr     =       0

Molecular dynamics:
     nstlim  =    500000, nscm    =      1000, nrespa  =         1
     t       =   0.00000, dt      =   0.00200, vlimit  =  -1.00000

Langevin dynamics temperature regulation:
     ig      =  853317
     temp0   = 300.00000, tempi   = 300.00000, gamma_ln=   2.00000

Pressure regulation:
     ntp     =       1
     pres0   =   1.01325, comp    =  44.60000, taup    =   5.00000

SHAKE:
     ntc     =       2, jfastw  =       0
     tol     =   0.00001

Free energy options:
     icfe    =       1, ifsc    =       0, klambda =       1
     clambda =  0.8850, scalpha =  0.5000, scbeta  = 12.0000
     sceeorder =       2
     dynlmb =  0.0000 logdvdl =       0

Ewald parameters:
     verbose =       0, ew_type =       0, nbflag  =       1, use_pme =       1
     vdwmeth =       1, eedmeth =       1, netfrc  =       1
     Box X =   55.004   Box Y =   55.004   Box Z =   55.004
     Alpha =  109.471   Beta  =  109.471   Gamma =  109.471
     NFFT1 =   56       NFFT2 =   56       NFFT3 =   56
     Cutoff=   10.000   Tol   =0.100E-04
     Ewald Coefficient =  0.27511
     Interpolation order =    4
     TI Mask 1 :1; matches      5 atoms
     TI Mask 2 :2; matches      5 atoms
     TI region 1:   11414 atoms
     TI region 2:   11414 atoms
     Checking for mismatched coordinates.

--------------------------------------------------------------------------------
   3.  ATOMIC COORDINATES AND VELOCITIES
--------------------------------------------------------------------------------

default_name
 begin time read from input coords =   200.000 ps

 Number of triangulated 3-point waters found:     3803

     Sum of charges for TI region  1 =  -2.99999999
     Skip neutralizing charges...

     Sum of charges for TI region  2 =   0.00000000
     Skip neutralizing charges...

--------------------------------------------------------------------------------
   4.  RESULTS
 NSTEP =     1000   TIME(PS) =     202.000  TEMP(K) =   300.74  PRESS =  -710.4
 Etot   =    -29013.8979  EKtot   =      6822.8376  EPtot      =    -35836.7355
 BOND   =         1.7391  ANGLE   =         7.3093  DIHED      =         0.0000
 1-4 NB =         0.0000  1-4 EEL =         0.0000  VDWAALS    =      5320.6576
 EELEC  =    -41166.4415  EHBOND  =         0.0000  RESTRAINT  =         0.0000
 EKCMT  =      3430.3751  VIRIAL  =      5370.7797  VOLUME     =    126506.4089
                                                    Density    =         0.9006
 DV/DL  =       179.2171
 ------------------------------------------------------------------------------

      A V E R A G E S   O V E R    1000 S T E P S

 NSTEP =     1000   TIME(PS) =     202.000  TEMP(K) =   301.21  PRESS =  -702.7
 Etot   =    -28784.7377  EKtot   =      6833.4318  EPtot      =    -35618.1695
 BOND   =         0.8888  ANGLE   =         7.9964  DIHED      =         0.0000
 1-4 NB =         0.0000  1-4 EEL =         0.0000  VDWAALS    =      5269.9999
 EELEC  =    -40897.0545  EHBOND  =         0.0000  RESTRAINT  =         0.0000
 EKCMT  =      3420.1928  VIRIAL  =      5351.5565  VOLUME     =    127254.8115
                                                    Density    =         0.8953
 DV/DL  =       239.8574
 ------------------------------------------------------------------------------

      R M S  F L U C T U A T I O N S

 NSTEP =     1000   TIME(PS) =     202.000  TEMP(K) =     2.01  PRESS =   166.3
 Etot   =       101.0315  EKtot   =        45.6826  EPtot      =       102.0943
 BOND   =         0.5768  ANGLE   =         0.9477  DIHED      =         0.0000
 1-4 NB =         0.0000  1-4 EEL =         0.0000  VDWAALS    =        99.9446
 EELEC  =       175.4016  EHBOND  =         0.0000  RESTRAINT  =         0.0000
 EKCMT  =        37.9408  VIRIAL  =       458.8009  VOLUME     =       446.3225
                                                    Density    =         0.0031
 DV/DL  =        25.7700
 ------------------------------------------------------------------------------

      A V E R A G E S   O V E R    1000 S T E P S

 NSTEP =     1000   TIME(PS) =     202.000  TEMP(K) =   301.21  PRESS =  -702.7
 Etot   =    -28784.7377  EKtot   =      6833.4318  EPtot      =    -35618.1695
 BOND   =         0.8888  ANGLE   =         7.9964  DIHED      =         0.0000
 1-4 NB =         0.0000  1-4 EEL =         0.0000  VDWAALS    =      5269.9999
 EELEC  =    -40897.0545  EHBOND  =         0.0000  RESTRAINT  =         0.0000
 EKCMT  =      3420.1928  VIRIAL  =      5351.5565  VOLUME     =    127254.8115
                                                    Density    =         0.8953
 DV/DL  =       239.8574
 ------------------------------------------------------------------------------

      R M S  F L U C T U A T I O N S

 NSTEP =     1000   TIME(PS) =     202.000  TEMP(K) =     2.01  PRESS =   166.3
 Etot   =       101.0315  EKtot   =        45.6826  EPtot      =       102.0943
 BOND   =         0.5768  ANGLE   =         0.9477  DIHED      =         0.0000
 1-4 NB =         0.0000  1-4 EEL =         0.0000  VDWAALS    =        99.9446
 EELEC  =       175.4016  EHBOND  =         0.0000  RESTRAINT  =         0.0000
 EKCMT  =        37.9408  VIRIAL  =       458.8009  VOLUME     =       446.3225
                                                    Density    =         0.0031
 DV/DL  =        25.7700
 ------------------------------------------------------------------------------

      DV/DL, AVERAGES OVER    1000 STEPS

 NSTEP =     1000   TIME(PS) =     202.000  TEMP(K) =     2.01  PRESS =     0.0
 Etot   =         0.0000  EKtot   =         0.0000  EPtot      =       239.8574
 BOND   =         0.0000  ANGLE   =         0.0000  DIHED      =         0.0000
 1-4 NB =         0.0000  1-4 EEL =         0.0000  VDWAALS    =        -6.5234
 EELEC  =       246.3808  EHBOND  =         0.0000  RESTRAINT  =         0.0000
 EKCMT  =         0.0000  VIRIAL  =         0.0000  VOLUME     =         0.0000
                                                    Density    =         0.0000
 DV/DL  =       239.8574
 ------------------------------------------------------------------------------

      A V E R A G E S   O V E R    1000 S T E P S

 NSTEP =     2000   TIME(PS) =     204.000  TEMP(K) =   301.02  PRESS =  -679.5
 Etot   =    -28868.1750  EKtot   =      6829.0752  EPtot      =    -35697.2502
 BOND   =         1.2806  ANGLE   =         8.1368  DIHED      =         0.0000
 1-4 NB =         0.0000  1-4 EEL =         0.0000  VDWAALS    =      5250.8799
 EELEC  =    -40957.5476  EHBOND  =         0.0000  RESTRAINT  =         0.0000
 EKCMT  =      3421.4534  VIRIAL  =      5266.0985  VOLUME     =    125735.5530
                                                    Density    =         0.9061
 DV/DL  =       235.6822
 ------------------------------------------------------------------------------

      R M S  F L U C T U A T I O N S

 NSTEP =     2000   TIME(PS) =     204.000  TEMP(K) =     2.08  PRESS =   150.1
 Etot   =        50.6550  EKtot   =        47.1558  EPtot      =        57.2927
 BOND   =         0.7034  ANGLE   =         0.8985  DIHED      =         0.0000
 1-4 NB =         0.0000  1-4 EEL =         0.0000  VDWAALS    =        80.9394
 EELEC  =       107.2108  EHBOND  =         0.0000  RESTRAINT  =         0.0000
 EKCMT  =        37.1438  VIRIAL  =       400.5001  VOLUME     =       432.1294
                                                    Density    =         0.0031
 DV/DL  =        26.7166
 ------------------------------------------------------------------------------

      A V E R A G E S   O V E R    1000 S T E P S

 NSTEP =     2000   TIME(PS) =     204.000  TEMP(K) =   301.02  PRESS =  -679.5
 Etot   =    -28868.1750  EKtot   =      6829.0752  EPtot      =    -35697.2502
 BOND   =         1.2806  ANGLE   =         8.1368  DIHED      =         0.0000
 1-4 NB =         0.0000  1-4 EEL =         0.0000  VDWAALS    =      5250.8799
 EELEC  =    -40957.5476  EHBOND  =         0.0000  RESTRAINT  =         0.0000
 EKCMT  =      3421.4534  VIRIAL  =      5266.0985  VOLUME     =    125735.5530
                                                    Density    =         0.9061
 DV/DL  =       235.6822
 ------------------------------------------------------------------------------

      R M S  F L U C T U A T I O N S

 NSTEP =     2000   TIME(PS) =     204.000  TEMP(K) =     2.08  PRESS =   150.1
 Etot   =        50.6550  EKtot   =        47.1558  EPtot      =        57.2927
 BOND   =         0.7034  ANGLE   =         0.8985  DIHED      =         0.0000
 1-4 NB =         0.0000  1-4 EEL =         0.0000  VDWAALS    =        80.9394
 EELEC  =       107.2108  EHBOND  =         0.0000  RESTRAINT  =         0.0000
 EKCMT  =        37.1438  VIRIAL  =       400.5001  VOLUME     =       432.1294
                                                    Density    =         0.0031
 DV/DL  =        26.7166
 ------------------------------------------------------------------------------

      DV/DL, AVERAGES OVER    1000 STEPS

 NSTEP =     2000   TIME(PS) =     204.000  TEMP(K) =     2.08  PRESS =     0.0
 Etot   =         0.0000  EKtot   =         0.0000  EPtot      =       235.6822
 BOND   =         0.0000  ANGLE   =         0.0000  DIHED      =         0.0000
 1-4 NB =         0.0000  1-4 EEL =         0.0000  VDWAALS    =        -6.5101
 EELEC  =       242.1923  EHBOND  =         0.0000  RESTRAINT  =         0.0000
 EKCMT  =         0.0000  VIRIAL  =         0.0000  VOLUME     =         0.0000
                                                    Density    =         0.0000
 DV/DL  =       235.6822
 ------------------------------------------------------------------------------

      A V E R A G E S   O V E R    1000 S T E P S

 NSTEP =   500000   TIME(PS) =    1200.000  TEMP(K) =   301.59  PRESS =    -5.0
 Etot   =    -29276.0407  EKtot   =      6842.0564  EPtot      =    -36118.0971
 BOND   =         1.6689  ANGLE   =         7.8032  DIHED      =         0.0000
 1-4 NB =         0.0000  1-4 EEL =         0.0000  VDWAALS    =      5348.4606
 EELEC  =    -41476.0297  EHBOND  =         0.0000  RESTRAINT  =         0.0000
 EKCMT  =      3429.1063  VIRIAL  =      3441.5776  VOLUME     =    115759.9966
                                                    Density    =         0.9842
 DV/DL  =       233.5566
 ------------------------------------------------------------------------------

      R M S  F L U C T U A T I O N S

 NSTEP =   500000   TIME(PS) =    1200.000  TEMP(K) =     2.47  PRESS =   167.8
 Etot   =        90.1380  EKtot   =        56.0131  EPtot      =        93.2064
 BOND   =         0.7143  ANGLE   =         1.1879  DIHED      =         0.0000
 1-4 NB =         0.0000  1-4 EEL =         0.0000  VDWAALS    =        87.1602
 EELEC  =       145.0195  EHBOND  =         0.0000  RESTRAINT  =         0.0000
 EKCMT  =        45.4069  VIRIAL  =       421.9662  VOLUME     =        11.9067
                                                    Density    =         0.0001
 DV/DL  =        24.8034
 ------------------------------------------------------------------------------

      A V E R A G E S   O V E R    1000 S T E P S

 NSTEP =   500000   TIME(PS) =    1200.000  TEMP(K) =   301.59  PRESS =    -5.0
 Etot   =    -29276.0407  EKtot   =      6842.0564  EPtot      =    -36118.0971
 BOND   =         1.6689  ANGLE   =         7.8032  DIHED      =         0.0000
 1-4 NB =         0.0000  1-4 EEL =         0.0000  VDWAALS    =      5348.4606
 EELEC  =    -41476.0297  EHBOND  =         0.0000  RESTRAINT  =         0.0000
 EKCMT  =      3429.1063  VIRIAL  =      3441.5776  VOLUME     =    115759.9966
                                                    Density    =         0.9842
 DV/DL  =       233.5566
 ------------------------------------------------------------------------------

      R M S  F L U C T U A T I O N S

 NSTEP =   500000   TIME(PS) =    1200.000  TEMP(K) =     2.47  PRESS =   167.8
 Etot   =        90.1380  EKtot   =        56.0131  EPtot      =        93.2064
 BOND   =         0.7143  ANGLE   =         1.1879  DIHED      =         0.0000
 1-4 NB =         0.0000  1-4 EEL =         0.0000  VDWAALS    =        87.1602
 EELEC  =       145.0195  EHBOND  =         0.0000  RESTRAINT  =         0.0000
 EKCMT  =        45.4069  VIRIAL  =       421.9662  VOLUME     =        11.9067
                                                    Density    =         0.0001
 DV/DL  =        24.8034
 ------------------------------------------------------------------------------

      DV/DL, AVERAGES OVER    1000 STEPS

 NSTEP =   500000   TIME(PS) =    1200.000  TEMP(K) =     2.47  PRESS =     0.0
 Etot   =         0.0000  EKtot   =         0.0000  EPtot      =       233.5566
 BOND   =         0.0000  ANGLE   =         0.0000  DIHED      =         0.0000
 1-4 NB =         0.0000  1-4 EEL =         0.0000  VDWAALS    =        -5.7017
 EELEC  =       239.2583  EHBOND  =         0.0000  RESTRAINT  =         0.0000
 EKCMT  =         0.0000  VIRIAL  =         0.0000  VOLUME     =         0.0000
                                                    Density    =         0.0000
 DV/DL  =       233.5566
 ------------------------------------------------------------------------------

      A V E R A G E S   O V E R  500000 S T E P S

 NSTEP =   500000   TIME(PS) =    1200.000  TEMP(K) =   299.84  PRESS =   -10.3
 Etot   =    -29488.1303  EKtot   =      6802.3040  EPtot      =    -36290.4343
 BOND   =         1.2459  ANGLE   =         7.7984  DIHED      =         0.0000
 1-4 NB =         0.0000  1-4 EEL =         0.0000  VDWAALS    =      5429.4491
 EELEC  =    -41728.9277  EHBOND  =         0.0000  RESTRAINT  =         0.0000
 EKCMT  =      3410.9492  VIRIAL  =      3438.2237  VOLUME     =    115895.6890
                                                    Density    =         0.9831
 DV/DL  =       240.3383
 ------------------------------------------------------------------------------

      R M S  F L U C T U A T I O N S

 NSTEP =   500000   TIME(PS) =    1200.000  TEMP(K) =     2.81  PRESS =   190.3
 Etot   =       124.7418  EKtot   =        63.7300  EPtot      =       105.3237
 BOND   =         0.8834  ANGLE   =         0.9673  DIHED      =         0.0000
 1-4 NB =         0.0000  1-4 EEL =         0.0000  VDWAALS    =        93.6363
 EELEC  =       161.1496  EHBOND  =         0.0000  RESTRAINT  =         0.0000
 EKCMT  =        45.2510  VIRIAL  =       478.7141  VOLUME     =       949.7771
                                                    Density    =         0.0075
 DV/DL  =        26.8469
 ------------------------------------------------------------------------------

      A V E R A G E S   O V E R  500000 S T E P S

 NSTEP =   500000   TIME(PS) =    1200.000  TEMP(K) =   299.84  PRESS =   -10.3
 Etot   =    -29488.1303  EKtot   =      6802.3040  EPtot      =    -36290.4343
 BOND   =         1.2459  ANGLE   =         7.7984  DIHED      =         0.0000
 1-4 NB =         0.0000  1-4 EEL =         0.0000  VDWAALS    =      5429.4491
 EELEC  =    -41728.9277  EHBOND  =         0.0000  RESTRAINT  =         0.0000
 EKCMT  =      3410.9492  VIRIAL  =      3438.2237  VOLUME     =    115895.6890
                                                    Density    =         0.9831
 DV/DL  =       240.3383
 ------------------------------------------------------------------------------

      R M S  F L U C T U A T I O N S

 NSTEP =   500000   TIME(PS) =    1200.000  TEMP(K) =     2.81  PRESS =   190.3
 Etot   =       124.7418  EKtot   =        63.7300  EPtot      =       105.3237
 BOND   =         0.8834  ANGLE   =         0.9673  DIHED      =         0.0000
 1-4 NB =         0.0000  1-4 EEL =         0.0000  VDWAALS    =        93.6363
 EELEC  =       161.1496  EHBOND  =         0.0000  RESTRAINT  =         0.0000
 EKCMT  =        45.2510  VIRIAL  =       478.7141  VOLUME     =       949.7771
                                                    Density    =         0.0075
 DV/DL  =        26.8469
 ------------------------------------------------------------------------------

      DV/DL, AVERAGES OVER  500000 STEPS

 NSTEP =   500000   TIME(PS) =    1200.000  TEMP(K) =     2.81  PRESS =     0.0
 Etot   =         0.0000  EKtot   =         0.0000  EPtot      =       240.3383
 BOND   =         0.0000  ANGLE   =         0.0000  DIHED      =         0.0000
 1-4 NB =         0.0000  1-4 EEL =         0.0000  VDWAALS    =        -6.6334
 EELEC  =       246.9717  EHBOND  =         0.0000  RESTRAINT  =         0.0000
 EKCMT  =         0.0000  VIRIAL  =         0.0000  VOLUME     =         0.0000
                                                    Density    =         0.0000
 DV/DL  =       240.3383
 ------------------------------------------------------------------------------
