-------------------------------------------------------
          Amber 20 PMEMD                              2020
          -------------------------------------------------------

  [-O]verwriting output

File Assignments:

 Here is the input file:

 &cntrl
   nstlim=500000, nscm=1000,
   ntx=5, irest=1, ntpr=1000,
   tempi=300.0, temp0=300.0, ntt=3, gamma_ln=2.0,
   ntp=1, pres0=1.01325, taup=5.0,
   ntb=2, igb=0, cut=10.0,
   dt=0.002, ig=-1,
   ntc=2, ntf=2,
   iwrap=0,
   ntwr=1000, ntwx=50000, ntave=1000,
   ioutfm=1, ntwv=-1,
   ifsc = 0, icfe=1,
   clambda=0.11505,
   timask1=':1',
   timask2=':2',
/

Note: ig = -1. Setting random seed to   948743 based on wallclock time in
      microseconds.

--------------------------------------------------------------------------------
   1.  RESOURCE   USE:
--------------------------------------------------------------------------------

 getting box info from netcdf restart file
 NATOM  =   11419 NTYPES =       6 NBONH =   11409 MBONA  =       8
 NTHETH =       0 MTHETA =      12 NPHIH =       0 MPHIA  =       0
 NHPARM =       0 NPARM  =       0 NNB   =   15234 NRES   =    3805
 NBONA  =       8 NTHETA =      12 NPHIA =       0 NUMBND =       3
 NUMANG =       1 NPTRA  =       0 NATYP =       4 NPHB   =       1
 IFBOX  =       2 NMXRS  =       5 IFCAP =       0 NEXTRA =       0
 NCOPY  =       0

     BOX TYPE: TRUNCATED OCTAHEDRON

--------------------------------------------------------------------------------
   2.  CONTROL  DATA  FOR  THE  RUN
--------------------------------------------------------------------------------

default_name

General flags:
     imin    =       0, nmropt  =       0

Nature and format of input:
     ntx     =       5, irest   =       1, ntrx    =       1

Nature and format of output:
     ntxo    =       2, ntpr    =    1000, ntrx    =       1, ntwr    =    1000
     iwrap   =       0, ntwx    =   50000, ntwv    =      -1, ntwe    =       0
     ioutfm  =       1, ntwprt  =       0, idecomp =       0, rbornstat=      0

Potential function:
     ntf     =       2, ntb     =       2, igb     =       0, nsnb    =      25
     ipol    =       0, gbsa    =       0, iesp    =       0
     dielc   =   1.00000, cut     =  10.00000, intdiel =   1.00000

Frozen or restrained atoms:
     ibelly  =       0, ntr     =       0

Molecular dynamics:
     nstlim  =    500000, nscm    =      1000, nrespa  =         1
     t       =   0.00000, dt      =   0.00200, vlimit  =  -1.00000

Langevin dynamics temperature regulation:
     ig      =  948743
     temp0   = 300.00000, tempi   = 300.00000, gamma_ln=   2.00000

Pressure regulation:
     ntp     =       1
     pres0   =   1.01325, comp    =  44.60000, taup    =   5.00000

SHAKE:
     ntc     =       2, jfastw  =       0
     tol     =   0.00001

Free energy options:
     icfe    =       1, ifsc    =       0, klambda =       1
     clambda =  0.1150, scalpha =  0.5000, scbeta  = 12.0000
     sceeorder =       2
     dynlmb =  0.0000 logdvdl =       0

Ewald parameters:
     verbose =       0, ew_type =       0, nbflag  =       1, use_pme =       1
     vdwmeth =       1, eedmeth =       1, netfrc  =       1
     Box X =   55.004   Box Y =   55.004   Box Z =   55.004
     Alpha =  109.471   Beta  =  109.471   Gamma =  109.471
     NFFT1 =   56       NFFT2 =   56       NFFT3 =   56
     Cutoff=   10.000   Tol   =0.100E-04
     Ewald Coefficient =  0.27511
     Interpolation order =    4
     TI Mask 1 :1; matches      5 atoms
     TI Mask 2 :2; matches      5 atoms
     TI region 1:   11414 atoms
     TI region 2:   11414 atoms
     Checking for mismatched coordinates.

--------------------------------------------------------------------------------
   3.  ATOMIC COORDINATES AND VELOCITIES
--------------------------------------------------------------------------------

default_name
 begin time read from input coords =   200.000 ps

 Number of triangulated 3-point waters found:     3803

     Sum of charges for TI region  1 =  -2.99999999
     Skip neutralizing charges...

     Sum of charges for TI region  2 =   0.00000000
     Skip neutralizing charges...

--------------------------------------------------------------------------------
   4.  RESULTS
 NSTEP =     1000   TIME(PS) =     202.000  TEMP(K) =   303.29  PRESS =  -996.5
 Etot   =    -29445.0297  EKtot   =      6880.7444  EPtot      =    -36325.7740
 BOND   =         4.3874  ANGLE   =         6.6316  DIHED      =         0.0000
 1-4 NB =         0.0000  1-4 EEL =         0.0000  VDWAALS    =      5213.0962
 EELEC  =    -41549.8893  EHBOND  =         0.0000  RESTRAINT  =         0.0000
 EKCMT  =      3396.4116  VIRIAL  =      6099.6119  VOLUME     =    125634.3294
                                                    Density    =         0.9068
 DV/DL  =      1037.3777
 ------------------------------------------------------------------------------

      A V E R A G E S   O V E R    1000 S T E P S

 NSTEP =     1000   TIME(PS) =     202.000  TEMP(K) =   298.00  PRESS = -1090.7
 Etot   =    -29423.9596  EKtot   =      6760.7699  EPtot      =    -36184.7294
 BOND   =         2.3212  ANGLE   =         8.0670  DIHED      =         0.0000
 1-4 NB =         0.0000  1-4 EEL =         0.0000  VDWAALS    =      5198.0681
 EELEC  =    -41393.1858  EHBOND  =         0.0000  RESTRAINT  =         0.0000
 EKCMT  =      3391.6855  VIRIAL  =      6379.2745  VOLUME     =    126836.4585
                                                    Density    =         0.8983
 DV/DL  =      1032.8789
 ------------------------------------------------------------------------------

      R M S  F L U C T U A T I O N S

 NSTEP =     1000   TIME(PS) =     202.000  TEMP(K) =     2.80  PRESS =   151.6
 Etot   =        60.9303  EKtot   =        63.4154  EPtot      =        73.0209
 BOND   =         1.3929  ANGLE   =         1.1885  DIHED      =         0.0000
 1-4 NB =         0.0000  1-4 EEL =         0.0000  VDWAALS    =        86.6719
 EELEC  =       126.4210  EHBOND  =         0.0000  RESTRAINT  =         0.0000
 EKCMT  =        39.9900  VIRIAL  =       405.5795  VOLUME     =       693.3808
                                                    Density    =         0.0049
 DV/DL  =        14.9375
 ------------------------------------------------------------------------------

      A V E R A G E S   O V E R    1000 S T E P S

 NSTEP =     1000   TIME(PS) =     202.000  TEMP(K) =   298.00  PRESS = -1090.7
 Etot   =    -29423.9596  EKtot   =      6760.7699  EPtot      =    -36184.7294
 BOND   =         2.3212  ANGLE   =         8.0670  DIHED      =         0.0000
 1-4 NB =         0.0000  1-4 EEL =         0.0000  VDWAALS    =      5198.0681
 EELEC  =    -41393.1858  EHBOND  =         0.0000  RESTRAINT  =         0.0000
 EKCMT  =      3391.6855  VIRIAL  =      6379.2745  VOLUME     =    126836.4585
                                                    Density    =         0.8983
 DV/DL  =      1032.8789
 ------------------------------------------------------------------------------

      R M S  F L U C T U A T I O N S

 NSTEP =     1000   TIME(PS) =     202.000  TEMP(K) =     2.80  PRESS =   151.6
 Etot   =        60.9303  EKtot   =        63.4154  EPtot      =        73.0209
 BOND   =         1.3929  ANGLE   =         1.1885  DIHED      =         0.0000
 1-4 NB =         0.0000  1-4 EEL =         0.0000  VDWAALS    =        86.6719
 EELEC  =       126.4210  EHBOND  =         0.0000  RESTRAINT  =         0.0000
 EKCMT  =        39.9900  VIRIAL  =       405.5795  VOLUME     =       693.3808
                                                    Density    =         0.0049
 DV/DL  =        14.9375
 ------------------------------------------------------------------------------

      DV/DL, AVERAGES OVER    1000 STEPS

 NSTEP =     1000   TIME(PS) =     202.000  TEMP(K) =     2.80  PRESS =     0.0
 Etot   =         0.0000  EKtot   =         0.0000  EPtot      =      1032.8789
 BOND   =         0.0000  ANGLE   =         0.0000  DIHED      =         0.0000
 1-4 NB =         0.0000  1-4 EEL =         0.0000  VDWAALS    =       -42.1997
 EELEC  =      1075.0785  EHBOND  =         0.0000  RESTRAINT  =         0.0000
 EKCMT  =         0.0000  VIRIAL  =         0.0000  VOLUME     =         0.0000
                                                    Density    =         0.0000
 DV/DL  =      1032.8789
 ------------------------------------------------------------------------------

      A V E R A G E S   O V E R    1000 S T E P S

 NSTEP =     2000   TIME(PS) =     204.000  TEMP(K) =   300.81  PRESS =  -755.3
 Etot   =    -29430.9327  EKtot   =      6824.4809  EPtot      =    -36255.4137
 BOND   =         2.5658  ANGLE   =         7.9484  DIHED      =         0.0000
 1-4 NB =         0.0000  1-4 EEL =         0.0000  VDWAALS    =      5277.9401
 EELEC  =    -41543.8680  EHBOND  =         0.0000  RESTRAINT  =         0.0000
 EKCMT  =      3417.0771  VIRIAL  =      5452.0319  VOLUME     =    124743.1328
                                                    Density    =         0.9133
 DV/DL  =      1033.3261
 ------------------------------------------------------------------------------

      R M S  F L U C T U A T I O N S

 NSTEP =     2000   TIME(PS) =     204.000  TEMP(K) =     2.28  PRESS =   208.9
 Etot   =        59.0675  EKtot   =        51.7910  EPtot      =        56.4761
 BOND   =         1.4228  ANGLE   =         1.0975  DIHED      =         0.0000
 1-4 NB =         0.0000  1-4 EEL =         0.0000  VDWAALS    =       103.6590
 EELEC  =       122.1047  EHBOND  =         0.0000  RESTRAINT  =         0.0000
 EKCMT  =        45.9599  VIRIAL  =       540.5509  VOLUME     =       510.3156
                                                    Density    =         0.0037
 DV/DL  =        23.3117
 ------------------------------------------------------------------------------

      A V E R A G E S   O V E R    1000 S T E P S

 NSTEP =     2000   TIME(PS) =     204.000  TEMP(K) =   300.81  PRESS =  -755.3
 Etot   =    -29430.9327  EKtot   =      6824.4809  EPtot      =    -36255.4137
 BOND   =         2.5658  ANGLE   =         7.9484  DIHED      =         0.0000
 1-4 NB =         0.0000  1-4 EEL =         0.0000  VDWAALS    =      5277.9401
 EELEC  =    -41543.8680  EHBOND  =         0.0000  RESTRAINT  =         0.0000
 EKCMT  =      3417.0771  VIRIAL  =      5452.0319  VOLUME     =    124743.1328
                                                    Density    =         0.9133
 DV/DL  =      1033.3261
 ------------------------------------------------------------------------------

      R M S  F L U C T U A T I O N S

 NSTEP =     2000   TIME(PS) =     204.000  TEMP(K) =     2.28  PRESS =   208.9
 Etot   =        59.0675  EKtot   =        51.7910  EPtot      =        56.4761
 BOND   =         1.4228  ANGLE   =         1.0975  DIHED      =         0.0000
 1-4 NB =         0.0000  1-4 EEL =         0.0000  VDWAALS    =       103.6590
 EELEC  =       122.1047  EHBOND  =         0.0000  RESTRAINT  =         0.0000
 EKCMT  =        45.9599  VIRIAL  =       540.5509  VOLUME     =       510.3156
                                                    Density    =         0.0037
 DV/DL  =        23.3117
 ------------------------------------------------------------------------------

      DV/DL, AVERAGES OVER    1000 STEPS

 NSTEP =     2000   TIME(PS) =     204.000  TEMP(K) =     2.28  PRESS =     0.0
 Etot   =         0.0000  EKtot   =         0.0000  EPtot      =      1033.3261
 BOND   =         0.0000  ANGLE   =         0.0000  DIHED      =         0.0000
 1-4 NB =         0.0000  1-4 EEL =         0.0000  VDWAALS    =       -38.8165
 EELEC  =      1072.1426  EHBOND  =         0.0000  RESTRAINT  =         0.0000
 EKCMT  =         0.0000  VIRIAL  =         0.0000  VOLUME     =         0.0000
                                                    Density    =         0.0000
 DV/DL  =      1033.3261
 ------------------------------------------------------------------------------

      A V E R A G E S   O V E R    1000 S T E P S

 NSTEP =   500000   TIME(PS) =    1200.000  TEMP(K) =   300.73  PRESS =    -3.3
 Etot   =    -29933.7189  EKtot   =      6822.5593  EPtot      =    -36756.2782
 BOND   =         2.5043  ANGLE   =         7.9763  DIHED      =         0.0000
 1-4 NB =         0.0000  1-4 EEL =         0.0000  VDWAALS    =      5414.9423
 EELEC  =    -42181.7011  EHBOND  =         0.0000  RESTRAINT  =         0.0000
 EKCMT  =      3425.0163  VIRIAL  =      3433.1815  VOLUME     =    115400.8982
                                                    Density    =         0.9873
 DV/DL  =      1041.2424
 ------------------------------------------------------------------------------

      R M S  F L U C T U A T I O N S

 NSTEP =   500000   TIME(PS) =    1200.000  TEMP(K) =     2.65  PRESS =   130.4
 Etot   =        82.2925  EKtot   =        60.2113  EPtot      =        78.9006
 BOND   =         1.5293  ANGLE   =         1.0587  DIHED      =         0.0000
 1-4 NB =         0.0000  1-4 EEL =         0.0000  VDWAALS    =        75.4441
 EELEC  =       135.4935  EHBOND  =         0.0000  RESTRAINT  =         0.0000
 EKCMT  =        45.2252  VIRIAL  =       320.7661  VOLUME     =        18.1764
                                                    Density    =         0.0002
 DV/DL  =        19.6300
 ------------------------------------------------------------------------------

      A V E R A G E S   O V E R    1000 S T E P S

 NSTEP =   500000   TIME(PS) =    1200.000  TEMP(K) =   300.73  PRESS =    -3.3
 Etot   =    -29933.7189  EKtot   =      6822.5593  EPtot      =    -36756.2782
 BOND   =         2.5043  ANGLE   =         7.9763  DIHED      =         0.0000
 1-4 NB =         0.0000  1-4 EEL =         0.0000  VDWAALS    =      5414.9423
 EELEC  =    -42181.7011  EHBOND  =         0.0000  RESTRAINT  =         0.0000
 EKCMT  =      3425.0163  VIRIAL  =      3433.1815  VOLUME     =    115400.8982
                                                    Density    =         0.9873
 DV/DL  =      1041.2424
 ------------------------------------------------------------------------------

      R M S  F L U C T U A T I O N S

 NSTEP =   500000   TIME(PS) =    1200.000  TEMP(K) =     2.65  PRESS =   130.4
 Etot   =        82.2925  EKtot   =        60.2113  EPtot      =        78.9006
 BOND   =         1.5293  ANGLE   =         1.0587  DIHED      =         0.0000
 1-4 NB =         0.0000  1-4 EEL =         0.0000  VDWAALS    =        75.4441
 EELEC  =       135.4935  EHBOND  =         0.0000  RESTRAINT  =         0.0000
 EKCMT  =        45.2252  VIRIAL  =       320.7661  VOLUME     =        18.1764
                                                    Density    =         0.0002
 DV/DL  =        19.6300
 ------------------------------------------------------------------------------

      DV/DL, AVERAGES OVER    1000 STEPS

 NSTEP =   500000   TIME(PS) =    1200.000  TEMP(K) =     2.65  PRESS =     0.0
 Etot   =         0.0000  EKtot   =         0.0000  EPtot      =      1041.2424
 BOND   =         0.0000  ANGLE   =         0.0000  DIHED      =         0.0000
 1-4 NB =         0.0000  1-4 EEL =         0.0000  VDWAALS    =       -40.9152
 EELEC  =      1082.1576  EHBOND  =         0.0000  RESTRAINT  =         0.0000
 EKCMT  =         0.0000  VIRIAL  =         0.0000  VOLUME     =         0.0000
                                                    Density    =         0.0000
 DV/DL  =      1041.2424
 ------------------------------------------------------------------------------

      A V E R A G E S   O V E R  500000 S T E P S

 NSTEP =   500000   TIME(PS) =    1200.000  TEMP(K) =   300.02  PRESS =   -10.7
 Etot   =    -30030.4046  EKtot   =      6806.4135  EPtot      =    -36836.8180
 BOND   =         2.4403  ANGLE   =         8.0418  DIHED      =         0.0000
 1-4 NB =         0.0000  1-4 EEL =         0.0000  VDWAALS    =      5462.6731
 EELEC  =    -42309.9732  EHBOND  =         0.0000  RESTRAINT  =         0.0000
 EKCMT  =      3413.7596  VIRIAL  =      3442.0519  VOLUME     =    115683.7517
                                                    Density    =         0.9849
 DV/DL  =      1042.0897
 ------------------------------------------------------------------------------

      R M S  F L U C T U A T I O N S

 NSTEP =   500000   TIME(PS) =    1200.000  TEMP(K) =     2.79  PRESS =   193.2
 Etot   =       122.2544  EKtot   =        63.3863  EPtot      =       104.1835
 BOND   =         1.4941  ANGLE   =         1.1291  DIHED      =         0.0000
 1-4 NB =         0.0000  1-4 EEL =         0.0000  VDWAALS    =        93.7368
 EELEC  =       161.5286  EHBOND  =         0.0000  RESTRAINT  =         0.0000
 EKCMT  =        44.6602  VIRIAL  =       488.0408  VOLUME     =       861.0942
                                                    Density    =         0.0069
 DV/DL  =        22.9253
 ------------------------------------------------------------------------------

      A V E R A G E S   O V E R  500000 S T E P S

 NSTEP =   500000   TIME(PS) =    1200.000  TEMP(K) =   300.02  PRESS =   -10.7
 Etot   =    -30030.4046  EKtot   =      6806.4135  EPtot      =    -36836.8180
 BOND   =         2.4403  ANGLE   =         8.0418  DIHED      =         0.0000
 1-4 NB =         0.0000  1-4 EEL =         0.0000  VDWAALS    =      5462.6731
 EELEC  =    -42309.9732  EHBOND  =         0.0000  RESTRAINT  =         0.0000
 EKCMT  =      3413.7596  VIRIAL  =      3442.0519  VOLUME     =    115683.7517
                                                    Density    =         0.9849
 DV/DL  =      1042.0897
 ------------------------------------------------------------------------------

      R M S  F L U C T U A T I O N S

 NSTEP =   500000   TIME(PS) =    1200.000  TEMP(K) =     2.79  PRESS =   193.2
 Etot   =       122.2544  EKtot   =        63.3863  EPtot      =       104.1835
 BOND   =         1.4941  ANGLE   =         1.1291  DIHED      =         0.0000
 1-4 NB =         0.0000  1-4 EEL =         0.0000  VDWAALS    =        93.7368
 EELEC  =       161.5286  EHBOND  =         0.0000  RESTRAINT  =         0.0000
 EKCMT  =        44.6602  VIRIAL  =       488.0408  VOLUME     =       861.0942
                                                    Density    =         0.0069
 DV/DL  =        22.9253
 ------------------------------------------------------------------------------

      DV/DL, AVERAGES OVER  500000 STEPS

 NSTEP =   500000   TIME(PS) =    1200.000  TEMP(K) =     2.79  PRESS =     0.0
 Etot   =         0.0000  EKtot   =         0.0000  EPtot      =      1042.0897
 BOND   =         0.0000  ANGLE   =         0.0000  DIHED      =         0.0000
 1-4 NB =         0.0000  1-4 EEL =         0.0000  VDWAALS    =       -39.5100
 EELEC  =      1081.5997  EHBOND  =         0.0000  RESTRAINT  =         0.0000
 EKCMT  =         0.0000  VIRIAL  =         0.0000  VOLUME     =         0.0000
                                                    Density    =         0.0000
 DV/DL  =      1042.0897
 ------------------------------------------------------------------------------
