-------------------------------------------------------
          Amber 20 PMEMD                              2020
          -------------------------------------------------------

  [-O]verwriting output

File Assignments:

 Here is the input file:

 &cntrl
   nstlim=1000000, nscm=1000,
   ntx=1, irest=0, ntpr=1000,
   tempi=300.0, temp0=300.0, ntt=3, gamma_ln=2.0,
   ntb=1, igb=0, cut=10.0,
   dt=0.001, ig=-1,
   ntc=1, ntf=1,
   iwrap=0,
   ntwr=1000, ntwx=50000, ntave=1000,
   ioutfm=1, ntwv=-1,
   ifsc = 1, icfe=1,
   clambda=0.00922,
   timask1=':1',
   timask2=':2',
/

Note: ig = -1. Setting random seed to   279927 based on wallclock time in
      microseconds.

--------------------------------------------------------------------------------
   1.  RESOURCE   USE:
--------------------------------------------------------------------------------

 getting box info from netcdf restart file
 NATOM  =      10 NTYPES =       6 NBONH =       0 MBONA  =       8
 NTHETH =       0 MTHETA =      12 NPHIH =       0 MPHIA  =       0
 NHPARM =       0 NPARM  =       0 NNB   =      22 NRES   =       2
 NBONA  =       8 NTHETA =      12 NPHIA =       0 NUMBND =       1
 NUMANG =       1 NPTRA  =       0 NATYP =       4 NPHB   =       1
 IFBOX  =       2 NMXRS  =       5 IFCAP =       0 NEXTRA =       0
 NCOPY  =       0

     BOX TYPE: TRUNCATED OCTAHEDRON

--------------------------------------------------------------------------------
   2.  CONTROL  DATA  FOR  THE  RUN
--------------------------------------------------------------------------------

default_name

General flags:
     imin    =       0, nmropt  =       0

Nature and format of input:
     ntx     =       1, irest   =       0, ntrx    =       1

Nature and format of output:
     ntxo    =       2, ntpr    =    1000, ntrx    =       1, ntwr    =    1000
     iwrap   =       0, ntwx    =   50000, ntwv    =      -1, ntwe    =       0
     ioutfm  =       1, ntwprt  =       0, idecomp =       0, rbornstat=      0

Potential function:
     ntf     =       1, ntb     =       1, igb     =       0, nsnb    =      25
     ipol    =       0, gbsa    =       0, iesp    =       0
     dielc   =   1.00000, cut     =  10.00000, intdiel =   1.00000

Frozen or restrained atoms:
     ibelly  =       0, ntr     =       0

Molecular dynamics:
     nstlim  =   1000000, nscm    =      1000, nrespa  =         1
     t       =   0.00000, dt      =   0.00100, vlimit  =  -1.00000

Langevin dynamics temperature regulation:
     ig      =  279927
     temp0   = 300.00000, tempi   = 300.00000, gamma_ln=   2.00000

Free energy options:
     icfe    =       1, ifsc    =       1, klambda =       1
     clambda =  0.0092, scalpha =  0.5000, scbeta  = 12.0000
     sceeorder =       2
     dynlmb =  0.0000 logdvdl =       0

Ewald parameters:
     verbose =       0, ew_type =       0, nbflag  =       1, use_pme =       1
     vdwmeth =       1, eedmeth =       1, netfrc  =       1
     Box X =   55.004   Box Y =   55.004   Box Z =   55.004
     Alpha =  109.471   Beta  =  109.471   Gamma =  109.471
     NFFT1 =   56       NFFT2 =   56       NFFT3 =   56
     Cutoff=   10.000   Tol   =0.100E-04
     Ewald Coefficient =  0.27511
     Interpolation order =    4
     TI Mask 1 :1; matches      5 atoms
     TI Mask 2 :2; matches      5 atoms
     TI region 1:       5 atoms
     TI region 2:       5 atoms

--------------------------------------------------------------------------------
   3.  ATOMIC COORDINATES AND VELOCITIES
--------------------------------------------------------------------------------

default_name
 begin time read from input coords =     0.000 ps

 Number of triangulated 3-point waters found:        0
 Number of shake restraints removed in TI region  1 :        0
 Number of shake restraints removed in TI region  2 :        0

     Sum of charges for TI region  1 =  -2.99999999
     Skip neutralizing charges...

     Sum of charges for TI region  2 =   0.00000000
     Skip neutralizing charges...

--------------------------------------------------------------------------------
   4.  RESULTS
 NSTEP =        0   TIME(PS) =       0.000  TEMP(K) =   399.34  PRESS =     0.0
 Etot   =       -72.4635  EKtot   =         5.9517  EPtot      =       -78.4152
 BOND   =         0.0000  ANGLE   =         6.2592  DIHED      =         0.0000
 1-4 NB =         0.0000  1-4 EEL =         0.0000  VDWAALS    =        -0.0003
 EELEC  =       -84.6741  EHBOND  =         0.0000  RESTRAINT  =         0.0000
 DV/DL  =        85.4624
 ------------------------------------------------------------------------------

      A V E R A G E S   O V E R    1000 S T E P S

 NSTEP =     1000   TIME(PS) =       1.000  TEMP(K) =   284.34  PRESS =     0.0
 Etot   =       -71.8729  EKtot   =         4.2377  EPtot      =       -76.1106
 BOND   =         0.8755  ANGLE   =         7.6832  DIHED      =         0.0000
 1-4 NB =         0.0000  1-4 EEL =         0.0000  VDWAALS    =        -0.0003
 EELEC  =       -84.6690  EHBOND  =         0.0000  RESTRAINT  =         0.0000
 DV/DL  =        85.4565
 ------------------------------------------------------------------------------

      R M S  F L U C T U A T I O N S

 NSTEP =     1000   TIME(PS) =       1.000  TEMP(K) =    82.91  PRESS =     0.0
 Etot   =         1.0241  EKtot   =         1.2357  EPtot      =         0.9268
 BOND   =         0.5710  ANGLE   =         0.7428  DIHED      =         0.0000
 1-4 NB =         0.0000  1-4 EEL =         0.0000  VDWAALS    =         0.0000
 EELEC  =         0.0099  EHBOND  =         0.0000  RESTRAINT  =         0.0000
 DV/DL  =         0.0241
 ------------------------------------------------------------------------------

      A V E R A G E S   O V E R    1000 S T E P S

 NSTEP =     1000   TIME(PS) =       1.000  TEMP(K) =   284.50  PRESS =     0.0
 Etot   =       -71.8705  EKtot   =         4.2401  EPtot      =       -76.1106
 BOND   =         0.8755  ANGLE   =         7.6832  DIHED      =         0.0000
 1-4 NB =         0.0000  1-4 EEL =         0.0000  VDWAALS    =        -0.0003
 EELEC  =       -84.6690  EHBOND  =         0.0000  RESTRAINT  =         0.0000
 DV/DL  =        85.4565
 ------------------------------------------------------------------------------

      R M S  F L U C T U A T I O N S

 NSTEP =     1000   TIME(PS) =       1.000  TEMP(K) =    82.72  PRESS =     0.0
 Etot   =         1.0231  EKtot   =         1.2329  EPtot      =         0.9268
 BOND   =         0.5710  ANGLE   =         0.7428  DIHED      =         0.0000
 1-4 NB =         0.0000  1-4 EEL =         0.0000  VDWAALS    =         0.0000
 EELEC  =         0.0099  EHBOND  =         0.0000  RESTRAINT  =         0.0000
 DV/DL  =         0.0241
 ------------------------------------------------------------------------------

      DV/DL, AVERAGES OVER    1000 STEPS

 NSTEP =     1000   TIME(PS) =       1.000  TEMP(K) =    82.72  PRESS =     0.0
 Etot   =         0.0000  EKtot   =         0.0000  EPtot      =        85.4565
 BOND   =        -0.0001  ANGLE   =        -0.0007  DIHED      =         0.0000
 1-4 NB =         0.0000  1-4 EEL =         0.0000  VDWAALS    =         0.0003
 EELEC  =        85.4570  EHBOND  =         0.0000  RESTRAINT  =         0.0000
 DV/DL  =        85.4565
 ------------------------------------------------------------------------------

      A V E R A G E S   O V E R    1000 S T E P S

 NSTEP =     2000   TIME(PS) =       2.000  TEMP(K) =   229.84  PRESS =     0.0
 Etot   =       -73.2563  EKtot   =         3.4255  EPtot      =       -76.6818
 BOND   =         0.9271  ANGLE   =         7.0617  DIHED      =         0.0000
 1-4 NB =         0.0000  1-4 EEL =         0.0000  VDWAALS    =        -0.0003
 EELEC  =       -84.6703  EHBOND  =         0.0000  RESTRAINT  =         0.0000
 DV/DL  =        85.4591
 ------------------------------------------------------------------------------

      R M S  F L U C T U A T I O N S

 NSTEP =     2000   TIME(PS) =       2.000  TEMP(K) =    62.52  PRESS =     0.0
 Etot   =         0.7863  EKtot   =         0.9318  EPtot      =         0.5895
 BOND   =         0.4787  ANGLE   =         0.3835  DIHED      =         0.0000
 1-4 NB =         0.0000  1-4 EEL =         0.0000  VDWAALS    =         0.0000
 EELEC  =         0.0124  EHBOND  =         0.0000  RESTRAINT  =         0.0000
 DV/DL  =         0.0242
 ------------------------------------------------------------------------------

      A V E R A G E S   O V E R    1000 S T E P S

 NSTEP =     2000   TIME(PS) =       2.000  TEMP(K) =   229.91  PRESS =     0.0
 Etot   =       -73.2552  EKtot   =         3.4266  EPtot      =       -76.6818
 BOND   =         0.9271  ANGLE   =         7.0617  DIHED      =         0.0000
 1-4 NB =         0.0000  1-4 EEL =         0.0000  VDWAALS    =        -0.0003
 EELEC  =       -84.6703  EHBOND  =         0.0000  RESTRAINT  =         0.0000
 DV/DL  =        85.4591
 ------------------------------------------------------------------------------

      R M S  F L U C T U A T I O N S

 NSTEP =     2000   TIME(PS) =       2.000  TEMP(K) =    62.85  PRESS =     0.0
 Etot   =         0.7901  EKtot   =         0.9367  EPtot      =         0.5895
 BOND   =         0.4787  ANGLE   =         0.3835  DIHED      =         0.0000
 1-4 NB =         0.0000  1-4 EEL =         0.0000  VDWAALS    =         0.0000
 EELEC  =         0.0124  EHBOND  =         0.0000  RESTRAINT  =         0.0000
 DV/DL  =         0.0242
 ------------------------------------------------------------------------------

      DV/DL, AVERAGES OVER    1000 STEPS

 NSTEP =     2000   TIME(PS) =       2.000  TEMP(K) =    62.85  PRESS =     0.0
 Etot   =         0.0000  EKtot   =         0.0000  EPtot      =        85.4591
 BOND   =         0.0007  ANGLE   =        -0.0001  DIHED      =         0.0000
 1-4 NB =         0.0000  1-4 EEL =         0.0000  VDWAALS    =         0.0003
 EELEC  =        85.4583  EHBOND  =         0.0000  RESTRAINT  =         0.0000
 DV/DL  =        85.4591
 ------------------------------------------------------------------------------

      A V E R A G E S   O V E R    1000 S T E P S

 NSTEP =  1000000   TIME(PS) =    1000.000  TEMP(K) =   333.45  PRESS =     0.0
 Etot   =       -70.1454  EKtot   =         4.9697  EPtot      =       -75.1151
 BOND   =         1.9304  ANGLE   =         7.6324  DIHED      =         0.0000
 1-4 NB =         0.0000  1-4 EEL =         0.0000  VDWAALS    =        -0.0003
 EELEC  =       -84.6775  EHBOND  =         0.0000  RESTRAINT  =         0.0000
 DV/DL  =        85.4666
 ------------------------------------------------------------------------------

      R M S  F L U C T U A T I O N S

 NSTEP =  1000000   TIME(PS) =    1000.000  TEMP(K) =    91.54  PRESS =     0.0
 Etot   =         1.4247  EKtot   =         1.3644  EPtot      =         1.1241
 BOND   =         0.8882  ANGLE   =         0.7394  DIHED      =         0.0000
 1-4 NB =         0.0000  1-4 EEL =         0.0000  VDWAALS    =         0.0000
 EELEC  =         0.0094  EHBOND  =         0.0000  RESTRAINT  =         0.0000
 DV/DL  =         0.0323
 ------------------------------------------------------------------------------

      A V E R A G E S   O V E R    1000 S T E P S

 NSTEP =  1000000   TIME(PS) =    1000.000  TEMP(K) =   333.48  PRESS =     0.0
 Etot   =       -70.1449  EKtot   =         4.9702  EPtot      =       -75.1151
 BOND   =         1.9304  ANGLE   =         7.6324  DIHED      =         0.0000
 1-4 NB =         0.0000  1-4 EEL =         0.0000  VDWAALS    =        -0.0003
 EELEC  =       -84.6775  EHBOND  =         0.0000  RESTRAINT  =         0.0000
 DV/DL  =        85.4666
 ------------------------------------------------------------------------------

      R M S  F L U C T U A T I O N S

 NSTEP =  1000000   TIME(PS) =    1000.000  TEMP(K) =    91.57  PRESS =     0.0
 Etot   =         1.4265  EKtot   =         1.3648  EPtot      =         1.1241
 BOND   =         0.8882  ANGLE   =         0.7394  DIHED      =         0.0000
 1-4 NB =         0.0000  1-4 EEL =         0.0000  VDWAALS    =         0.0000
 EELEC  =         0.0094  EHBOND  =         0.0000  RESTRAINT  =         0.0000
 DV/DL  =         0.0323
 ------------------------------------------------------------------------------

      DV/DL, AVERAGES OVER    1000 STEPS

 NSTEP =  1000000   TIME(PS) =    1000.000  TEMP(K) =    91.57  PRESS =     0.0
 Etot   =         0.0000  EKtot   =         0.0000  EPtot      =        85.4666
 BOND   =         0.0007  ANGLE   =         0.0001  DIHED      =         0.0000
 1-4 NB =         0.0000  1-4 EEL =         0.0000  VDWAALS    =         0.0003
 EELEC  =        85.4655  EHBOND  =         0.0000  RESTRAINT  =         0.0000
 DV/DL  =        85.4666
 ------------------------------------------------------------------------------

      A V E R A G E S   O V E R 1000000 S T E P S

 NSTEP =  1000000   TIME(PS) =    1000.000  TEMP(K) =   299.80  PRESS =     0.0
 Etot   =       -71.2667  EKtot   =         4.4683  EPtot      =       -75.7350
 BOND   =         1.1896  ANGLE   =         7.7464  DIHED      =         0.0000
 1-4 NB =         0.0000  1-4 EEL =         0.0000  VDWAALS    =        -0.0003
 EELEC  =       -84.6707  EHBOND  =         0.0000  RESTRAINT  =         0.0000
 DV/DL  =        85.4589
 ------------------------------------------------------------------------------

      R M S  F L U C T U A T I O N S

 NSTEP =  1000000   TIME(PS) =    1000.000  TEMP(K) =   111.75  PRESS =     0.0
 Etot   =         2.1102  EKtot   =         1.6655  EPtot      =         1.2726
 BOND   =         0.8597  ANGLE   =         0.9418  DIHED      =         0.0000
 1-4 NB =         0.0000  1-4 EEL =         0.0000  VDWAALS    =         0.0000
 EELEC  =         0.0109  EHBOND  =         0.0000  RESTRAINT  =         0.0000
 DV/DL  =         0.0269
 ------------------------------------------------------------------------------

      A V E R A G E S   O V E R 1000000 S T E P S

 NSTEP =  1000000   TIME(PS) =    1000.000  TEMP(K) =   299.81  PRESS =     0.0
 Etot   =       -71.2666  EKtot   =         4.4684  EPtot      =       -75.7350
 BOND   =         1.1896  ANGLE   =         7.7464  DIHED      =         0.0000
 1-4 NB =         0.0000  1-4 EEL =         0.0000  VDWAALS    =        -0.0003
 EELEC  =       -84.6707  EHBOND  =         0.0000  RESTRAINT  =         0.0000
 DV/DL  =        85.4589
 ------------------------------------------------------------------------------

      R M S  F L U C T U A T I O N S

 NSTEP =  1000000   TIME(PS) =    1000.000  TEMP(K) =   111.75  PRESS =     0.0
 Etot   =         2.1102  EKtot   =         1.6654  EPtot      =         1.2726
 BOND   =         0.8597  ANGLE   =         0.9418  DIHED      =         0.0000
 1-4 NB =         0.0000  1-4 EEL =         0.0000  VDWAALS    =         0.0000
 EELEC  =         0.0109  EHBOND  =         0.0000  RESTRAINT  =         0.0000
 DV/DL  =         0.0269
 ------------------------------------------------------------------------------

      DV/DL, AVERAGES OVER 1000000 STEPS

 NSTEP =  1000000   TIME(PS) =    1000.000  TEMP(K) =   111.75  PRESS =     0.0
 Etot   =         0.0000  EKtot   =         0.0000  EPtot      =        85.4589
 BOND   =         0.0000  ANGLE   =        -0.0000  DIHED      =         0.0000
 1-4 NB =         0.0000  1-4 EEL =         0.0000  VDWAALS    =         0.0003
 EELEC  =        85.4586  EHBOND  =         0.0000  RESTRAINT  =         0.0000
 DV/DL  =        85.4589
 ------------------------------------------------------------------------------
