-------------------------------------------------------
          Amber 20 PMEMD                              2020
          -------------------------------------------------------

  [-O]verwriting output

File Assignments:

 Here is the input file:

 &cntrl
   nstlim=500000, nscm=1000,
   ntx=5, irest=1, ntpr=1000,
   tempi=300.0, temp0=300.0, ntt=3, gamma_ln=2.0,
   ntp=1, pres0=1.01325, taup=5.0,
   ntb=2, igb=0, cut=10.0,
   dt=0.002, ig=-1,
   ntc=2, ntf=2,
   iwrap=0,
   ntwr=1000, ntwx=50000, ntave=1000,
   ioutfm=1, ntwv=-1,
   ifsc = 0, icfe=1,
   clambda=0.00922,
   timask1=':1',
   timask2=':2',
/

Note: ig = -1. Setting random seed to   593303 based on wallclock time in
      microseconds.

--------------------------------------------------------------------------------
   1.  RESOURCE   USE:
--------------------------------------------------------------------------------

 getting box info from netcdf restart file
 NATOM  =   11419 NTYPES =       6 NBONH =   11409 MBONA  =       8
 NTHETH =       0 MTHETA =      12 NPHIH =       0 MPHIA  =       0
 NHPARM =       0 NPARM  =       0 NNB   =   15234 NRES   =    3805
 NBONA  =       8 NTHETA =      12 NPHIA =       0 NUMBND =       3
 NUMANG =       1 NPTRA  =       0 NATYP =       4 NPHB   =       1
 IFBOX  =       2 NMXRS  =       5 IFCAP =       0 NEXTRA =       0
 NCOPY  =       0

     BOX TYPE: TRUNCATED OCTAHEDRON

--------------------------------------------------------------------------------
   2.  CONTROL  DATA  FOR  THE  RUN
--------------------------------------------------------------------------------

default_name

General flags:
     imin    =       0, nmropt  =       0

Nature and format of input:
     ntx     =       5, irest   =       1, ntrx    =       1

Nature and format of output:
     ntxo    =       2, ntpr    =    1000, ntrx    =       1, ntwr    =    1000
     iwrap   =       0, ntwx    =   50000, ntwv    =      -1, ntwe    =       0
     ioutfm  =       1, ntwprt  =       0, idecomp =       0, rbornstat=      0

Potential function:
     ntf     =       2, ntb     =       2, igb     =       0, nsnb    =      25
     ipol    =       0, gbsa    =       0, iesp    =       0
     dielc   =   1.00000, cut     =  10.00000, intdiel =   1.00000

Frozen or restrained atoms:
     ibelly  =       0, ntr     =       0

Molecular dynamics:
     nstlim  =    500000, nscm    =      1000, nrespa  =         1
     t       =   0.00000, dt      =   0.00200, vlimit  =  -1.00000

Langevin dynamics temperature regulation:
     ig      =  593303
     temp0   = 300.00000, tempi   = 300.00000, gamma_ln=   2.00000

Pressure regulation:
     ntp     =       1
     pres0   =   1.01325, comp    =  44.60000, taup    =   5.00000

SHAKE:
     ntc     =       2, jfastw  =       0
     tol     =   0.00001

Free energy options:
     icfe    =       1, ifsc    =       0, klambda =       1
     clambda =  0.0092, scalpha =  0.5000, scbeta  = 12.0000
     sceeorder =       2
     dynlmb =  0.0000 logdvdl =       0

Ewald parameters:
     verbose =       0, ew_type =       0, nbflag  =       1, use_pme =       1
     vdwmeth =       1, eedmeth =       1, netfrc  =       1
     Box X =   55.004   Box Y =   55.004   Box Z =   55.004
     Alpha =  109.471   Beta  =  109.471   Gamma =  109.471
     NFFT1 =   56       NFFT2 =   56       NFFT3 =   56
     Cutoff=   10.000   Tol   =0.100E-04
     Ewald Coefficient =  0.27511
     Interpolation order =    4
     TI Mask 1 :1; matches      5 atoms
     TI Mask 2 :2; matches      5 atoms
     TI region 1:   11414 atoms
     TI region 2:   11414 atoms
     Checking for mismatched coordinates.

--------------------------------------------------------------------------------
   3.  ATOMIC COORDINATES AND VELOCITIES
--------------------------------------------------------------------------------

default_name
 begin time read from input coords =   200.000 ps

 Number of triangulated 3-point waters found:     3803

     Sum of charges for TI region  1 =  -2.99999999
     Skip neutralizing charges...

     Sum of charges for TI region  2 =   0.00000000
     Skip neutralizing charges...

--------------------------------------------------------------------------------
   4.  RESULTS
 NSTEP =     1000   TIME(PS) =     202.000  TEMP(K) =   299.84  PRESS =  -741.5
 Etot   =    -29611.8260  EKtot   =      6802.4184  EPtot      =    -36414.2445
 BOND   =         2.6071  ANGLE   =         7.8531  DIHED      =         0.0000
 1-4 NB =         0.0000  1-4 EEL =         0.0000  VDWAALS    =      5355.5776
 EELEC  =    -41780.2823  EHBOND  =         0.0000  RESTRAINT  =         0.0000
 EKCMT  =      3439.3138  VIRIAL  =      5461.6085  VOLUME     =    126312.1148
                                                    Density    =         0.9020
 DV/DL  =      1111.2183
 ------------------------------------------------------------------------------

      A V E R A G E S   O V E R    1000 S T E P S

 NSTEP =     1000   TIME(PS) =     202.000  TEMP(K) =   300.75  PRESS =  -788.8
 Etot   =    -29494.6381  EKtot   =      6823.0289  EPtot      =    -36317.6670
 BOND   =         2.7833  ANGLE   =         8.1730  DIHED      =         0.0000
 1-4 NB =         0.0000  1-4 EEL =         0.0000  VDWAALS    =      5311.5726
 EELEC  =    -41640.1959  EHBOND  =         0.0000  RESTRAINT  =         0.0000
 EKCMT  =      3417.6283  VIRIAL  =      5584.2237  VOLUME     =    127202.0421
                                                    Density    =         0.8957
 DV/DL  =      1129.4651
 ------------------------------------------------------------------------------

      R M S  F L U C T U A T I O N S

 NSTEP =     1000   TIME(PS) =     202.000  TEMP(K) =     2.50  PRESS =   160.9
 Etot   =        67.1004  EKtot   =        56.7713  EPtot      =        55.6914
 BOND   =         1.5569  ANGLE   =         1.1558  DIHED      =         0.0000
 1-4 NB =         0.0000  1-4 EEL =         0.0000  VDWAALS    =        83.9168
 EELEC  =       106.9288  EHBOND  =         0.0000  RESTRAINT  =         0.0000
 EKCMT  =        40.8096  VIRIAL  =       436.2720  VOLUME     =       504.0623
                                                    Density    =         0.0035
 DV/DL  =        21.3188
 ------------------------------------------------------------------------------

      A V E R A G E S   O V E R    1000 S T E P S

 NSTEP =     1000   TIME(PS) =     202.000  TEMP(K) =   300.75  PRESS =  -788.8
 Etot   =    -29494.6381  EKtot   =      6823.0289  EPtot      =    -36317.6670
 BOND   =         2.7833  ANGLE   =         8.1730  DIHED      =         0.0000
 1-4 NB =         0.0000  1-4 EEL =         0.0000  VDWAALS    =      5311.5726
 EELEC  =    -41640.1959  EHBOND  =         0.0000  RESTRAINT  =         0.0000
 EKCMT  =      3417.6283  VIRIAL  =      5584.2237  VOLUME     =    127202.0421
                                                    Density    =         0.8957
 DV/DL  =      1129.4651
 ------------------------------------------------------------------------------

      R M S  F L U C T U A T I O N S

 NSTEP =     1000   TIME(PS) =     202.000  TEMP(K) =     2.50  PRESS =   160.9
 Etot   =        67.1004  EKtot   =        56.7713  EPtot      =        55.6914
 BOND   =         1.5569  ANGLE   =         1.1558  DIHED      =         0.0000
 1-4 NB =         0.0000  1-4 EEL =         0.0000  VDWAALS    =        83.9168
 EELEC  =       106.9288  EHBOND  =         0.0000  RESTRAINT  =         0.0000
 EKCMT  =        40.8096  VIRIAL  =       436.2720  VOLUME     =       504.0623
                                                    Density    =         0.0035
 DV/DL  =        21.3188
 ------------------------------------------------------------------------------

      DV/DL, AVERAGES OVER    1000 STEPS

 NSTEP =     1000   TIME(PS) =     202.000  TEMP(K) =     2.50  PRESS =     0.0
 Etot   =         0.0000  EKtot   =         0.0000  EPtot      =      1129.4651
 BOND   =         0.0000  ANGLE   =         0.0000  DIHED      =         0.0000
 1-4 NB =         0.0000  1-4 EEL =         0.0000  VDWAALS    =       -44.1553
 EELEC  =      1173.6205  EHBOND  =         0.0000  RESTRAINT  =         0.0000
 EKCMT  =         0.0000  VIRIAL  =         0.0000  VOLUME     =         0.0000
                                                    Density    =         0.0000
 DV/DL  =      1129.4651
 ------------------------------------------------------------------------------

      A V E R A G E S   O V E R    1000 S T E P S

 NSTEP =     2000   TIME(PS) =     204.000  TEMP(K) =   297.65  PRESS =  -692.7
 Etot   =    -29714.6426  EKtot   =      6752.6854  EPtot      =    -36467.3280
 BOND   =         2.9018  ANGLE   =         7.8310  DIHED      =         0.0000
 1-4 NB =         0.0000  1-4 EEL =         0.0000  VDWAALS    =      5356.6816
 EELEC  =    -41834.7424  EHBOND  =         0.0000  RESTRAINT  =         0.0000
 EKCMT  =      3388.7552  VIRIAL  =      5266.1521  VOLUME     =    125475.4511
                                                    Density    =         0.9080
 DV/DL  =      1133.9955
 ------------------------------------------------------------------------------

      R M S  F L U C T U A T I O N S

 NSTEP =     2000   TIME(PS) =     204.000  TEMP(K) =     2.81  PRESS =   174.0
 Etot   =        74.3823  EKtot   =        63.6725  EPtot      =        75.9461
 BOND   =         1.6746  ANGLE   =         1.0340  DIHED      =         0.0000
 1-4 NB =         0.0000  1-4 EEL =         0.0000  VDWAALS    =        85.2137
 EELEC  =       123.8147  EHBOND  =         0.0000  RESTRAINT  =         0.0000
 EKCMT  =        53.5688  VIRIAL  =       464.4959  VOLUME     =       451.3875
                                                    Density    =         0.0033
 DV/DL  =        22.8246
 ------------------------------------------------------------------------------

      A V E R A G E S   O V E R    1000 S T E P S

 NSTEP =     2000   TIME(PS) =     204.000  TEMP(K) =   297.65  PRESS =  -692.7
 Etot   =    -29714.6426  EKtot   =      6752.6854  EPtot      =    -36467.3280
 BOND   =         2.9018  ANGLE   =         7.8310  DIHED      =         0.0000
 1-4 NB =         0.0000  1-4 EEL =         0.0000  VDWAALS    =      5356.6816
 EELEC  =    -41834.7424  EHBOND  =         0.0000  RESTRAINT  =         0.0000
 EKCMT  =      3388.7552  VIRIAL  =      5266.1521  VOLUME     =    125475.4511
                                                    Density    =         0.9080
 DV/DL  =      1133.9955
 ------------------------------------------------------------------------------

      R M S  F L U C T U A T I O N S

 NSTEP =     2000   TIME(PS) =     204.000  TEMP(K) =     2.81  PRESS =   174.0
 Etot   =        74.3823  EKtot   =        63.6725  EPtot      =        75.9461
 BOND   =         1.6746  ANGLE   =         1.0340  DIHED      =         0.0000
 1-4 NB =         0.0000  1-4 EEL =         0.0000  VDWAALS    =        85.2137
 EELEC  =       123.8147  EHBOND  =         0.0000  RESTRAINT  =         0.0000
 EKCMT  =        53.5688  VIRIAL  =       464.4959  VOLUME     =       451.3875
                                                    Density    =         0.0033
 DV/DL  =        22.8246
 ------------------------------------------------------------------------------

      DV/DL, AVERAGES OVER    1000 STEPS

 NSTEP =     2000   TIME(PS) =     204.000  TEMP(K) =     2.81  PRESS =     0.0
 Etot   =         0.0000  EKtot   =         0.0000  EPtot      =      1133.9955
 BOND   =         0.0000  ANGLE   =         0.0000  DIHED      =         0.0000
 1-4 NB =         0.0000  1-4 EEL =         0.0000  VDWAALS    =       -44.4581
 EELEC  =      1178.4536  EHBOND  =         0.0000  RESTRAINT  =         0.0000
 EKCMT  =         0.0000  VIRIAL  =         0.0000  VOLUME     =         0.0000
                                                    Density    =         0.0000
 DV/DL  =      1133.9955
 ------------------------------------------------------------------------------

      A V E R A G E S   O V E R    1000 S T E P S

 NSTEP =   500000   TIME(PS) =    1200.000  TEMP(K) =   298.26  PRESS =   -12.9
 Etot   =    -30240.3052  EKtot   =      6766.6213  EPtot      =    -37006.9265
 BOND   =         2.6086  ANGLE   =         7.7987  DIHED      =         0.0000
 1-4 NB =         0.0000  1-4 EEL =         0.0000  VDWAALS    =      5500.1570
 EELEC  =    -42517.4908  EHBOND  =         0.0000  RESTRAINT  =         0.0000
 EKCMT  =      3415.9443  VIRIAL  =      3448.2341  VOLUME     =    115731.3741
                                                    Density    =         0.9844
 DV/DL  =      1127.8045
 ------------------------------------------------------------------------------

      R M S  F L U C T U A T I O N S

 NSTEP =   500000   TIME(PS) =    1200.000  TEMP(K) =     2.62  PRESS =   162.7
 Etot   =        88.7367  EKtot   =        59.3450  EPtot      =        71.4280
 BOND   =         1.3008  ANGLE   =         0.9302  DIHED      =         0.0000
 1-4 NB =         0.0000  1-4 EEL =         0.0000  VDWAALS    =        72.8093
 EELEC  =        91.5238  EHBOND  =         0.0000  RESTRAINT  =         0.0000
 EKCMT  =        33.9449  VIRIAL  =       399.8003  VOLUME     =        33.9416
                                                    Density    =         0.0003
 DV/DL  =        17.1205
 ------------------------------------------------------------------------------

      A V E R A G E S   O V E R    1000 S T E P S

 NSTEP =   500000   TIME(PS) =    1200.000  TEMP(K) =   298.26  PRESS =   -12.9
 Etot   =    -30240.3052  EKtot   =      6766.6213  EPtot      =    -37006.9265
 BOND   =         2.6086  ANGLE   =         7.7987  DIHED      =         0.0000
 1-4 NB =         0.0000  1-4 EEL =         0.0000  VDWAALS    =      5500.1570
 EELEC  =    -42517.4908  EHBOND  =         0.0000  RESTRAINT  =         0.0000
 EKCMT  =      3415.9443  VIRIAL  =      3448.2341  VOLUME     =    115731.3741
                                                    Density    =         0.9844
 DV/DL  =      1127.8045
 ------------------------------------------------------------------------------

      R M S  F L U C T U A T I O N S

 NSTEP =   500000   TIME(PS) =    1200.000  TEMP(K) =     2.62  PRESS =   162.7
 Etot   =        88.7367  EKtot   =        59.3450  EPtot      =        71.4280
 BOND   =         1.3008  ANGLE   =         0.9302  DIHED      =         0.0000
 1-4 NB =         0.0000  1-4 EEL =         0.0000  VDWAALS    =        72.8093
 EELEC  =        91.5238  EHBOND  =         0.0000  RESTRAINT  =         0.0000
 EKCMT  =        33.9449  VIRIAL  =       399.8003  VOLUME     =        33.9416
                                                    Density    =         0.0003
 DV/DL  =        17.1205
 ------------------------------------------------------------------------------

      DV/DL, AVERAGES OVER    1000 STEPS

 NSTEP =   500000   TIME(PS) =    1200.000  TEMP(K) =     2.62  PRESS =     0.0
 Etot   =         0.0000  EKtot   =         0.0000  EPtot      =      1127.8045
 BOND   =         0.0000  ANGLE   =         0.0000  DIHED      =         0.0000
 1-4 NB =         0.0000  1-4 EEL =         0.0000  VDWAALS    =       -42.6452
 EELEC  =      1170.4497  EHBOND  =         0.0000  RESTRAINT  =         0.0000
 EKCMT  =         0.0000  VIRIAL  =         0.0000  VOLUME     =         0.0000
                                                    Density    =         0.0000
 DV/DL  =      1127.8045
 ------------------------------------------------------------------------------

      A V E R A G E S   O V E R  500000 S T E P S

 NSTEP =   500000   TIME(PS) =    1200.000  TEMP(K) =   300.02  PRESS =   -10.4
 Etot   =    -30152.7634  EKtot   =      6806.4956  EPtot      =    -36959.2589
 BOND   =         2.9270  ANGLE   =         8.0851  DIHED      =         0.0000
 1-4 NB =         0.0000  1-4 EEL =         0.0000  VDWAALS    =      5473.1545
 EELEC  =    -42443.4255  EHBOND  =         0.0000  RESTRAINT  =         0.0000
 EKCMT  =      3413.2621  VIRIAL  =      3440.7444  VOLUME     =    115685.5856
                                                    Density    =         0.9849
 DV/DL  =      1133.8045
 ------------------------------------------------------------------------------

      R M S  F L U C T U A T I O N S

 NSTEP =   500000   TIME(PS) =    1200.000  TEMP(K) =     2.78  PRESS =   190.3
 Etot   =       123.0548  EKtot   =        63.1127  EPtot      =       104.6982
 BOND   =         1.6976  ANGLE   =         1.1601  DIHED      =         0.0000
 1-4 NB =         0.0000  1-4 EEL =         0.0000  VDWAALS    =        92.9058
 EELEC  =       159.6329  EHBOND  =         0.0000  RESTRAINT  =         0.0000
 EKCMT  =        45.1130  VIRIAL  =       478.5256  VOLUME     =       967.3811
                                                    Density    =         0.0077
 DV/DL  =        22.3012
 ------------------------------------------------------------------------------

      A V E R A G E S   O V E R  500000 S T E P S

 NSTEP =   500000   TIME(PS) =    1200.000  TEMP(K) =   300.02  PRESS =   -10.4
 Etot   =    -30152.7634  EKtot   =      6806.4956  EPtot      =    -36959.2589
 BOND   =         2.9270  ANGLE   =         8.0851  DIHED      =         0.0000
 1-4 NB =         0.0000  1-4 EEL =         0.0000  VDWAALS    =      5473.1545
 EELEC  =    -42443.4255  EHBOND  =         0.0000  RESTRAINT  =         0.0000
 EKCMT  =      3413.2621  VIRIAL  =      3440.7444  VOLUME     =    115685.5856
                                                    Density    =         0.9849
 DV/DL  =      1133.8045
 ------------------------------------------------------------------------------

      R M S  F L U C T U A T I O N S

 NSTEP =   500000   TIME(PS) =    1200.000  TEMP(K) =     2.78  PRESS =   190.3
 Etot   =       123.0548  EKtot   =        63.1127  EPtot      =       104.6982
 BOND   =         1.6976  ANGLE   =         1.1601  DIHED      =         0.0000
 1-4 NB =         0.0000  1-4 EEL =         0.0000  VDWAALS    =        92.9058
 EELEC  =       159.6329  EHBOND  =         0.0000  RESTRAINT  =         0.0000
 EKCMT  =        45.1130  VIRIAL  =       478.5256  VOLUME     =       967.3811
                                                    Density    =         0.0077
 DV/DL  =        22.3012
 ------------------------------------------------------------------------------

      DV/DL, AVERAGES OVER  500000 STEPS

 NSTEP =   500000   TIME(PS) =    1200.000  TEMP(K) =     2.78  PRESS =     0.0
 Etot   =         0.0000  EKtot   =         0.0000  EPtot      =      1133.8045
 BOND   =         0.0000  ANGLE   =         0.0000  DIHED      =         0.0000
 1-4 NB =         0.0000  1-4 EEL =         0.0000  VDWAALS    =       -42.8492
 EELEC  =      1176.6538  EHBOND  =         0.0000  RESTRAINT  =         0.0000
 EKCMT  =         0.0000  VIRIAL  =         0.0000  VOLUME     =         0.0000
                                                    Density    =         0.0000
 DV/DL  =      1133.8045
 ------------------------------------------------------------------------------
