-------------------------------------------------------
          Amber 20 PMEMD                              2020
          -------------------------------------------------------

  [-O]verwriting output

File Assignments:

 Here is the input file:

 &cntrl
   nstlim=500000, nscm=1000,
   ntx=5, irest=1, ntpr=1000,
   tempi=300.0, temp0=300.0, ntt=3, gamma_ln=2.0,
   ntp=1, pres0=1.01325, taup=5.0,
   ntb=2, igb=0, cut=10.0,
   dt=0.002, ig=-1,
   ntc=2, ntf=2,
   iwrap=0,
   ntwr=1000, ntwx=50000, ntave=1000,
   ioutfm=1, ntwv=-1,
   ifsc = 0, icfe=1,
   clambda=0.99078,
   timask1=':1',
   timask2=':2',
/

Note: ig = -1. Setting random seed to   722006 based on wallclock time in
      microseconds.

--------------------------------------------------------------------------------
   1.  RESOURCE   USE:
--------------------------------------------------------------------------------

 getting box info from netcdf restart file
 NATOM  =   11419 NTYPES =       6 NBONH =   11409 MBONA  =       8
 NTHETH =       0 MTHETA =      12 NPHIH =       0 MPHIA  =       0
 NHPARM =       0 NPARM  =       0 NNB   =   15234 NRES   =    3805
 NBONA  =       8 NTHETA =      12 NPHIA =       0 NUMBND =       3
 NUMANG =       1 NPTRA  =       0 NATYP =       4 NPHB   =       1
 IFBOX  =       2 NMXRS  =       5 IFCAP =       0 NEXTRA =       0
 NCOPY  =       0

     BOX TYPE: TRUNCATED OCTAHEDRON

--------------------------------------------------------------------------------
   2.  CONTROL  DATA  FOR  THE  RUN
--------------------------------------------------------------------------------

default_name

General flags:
     imin    =       0, nmropt  =       0

Nature and format of input:
     ntx     =       5, irest   =       1, ntrx    =       1

Nature and format of output:
     ntxo    =       2, ntpr    =    1000, ntrx    =       1, ntwr    =    1000
     iwrap   =       0, ntwx    =   50000, ntwv    =      -1, ntwe    =       0
     ioutfm  =       1, ntwprt  =       0, idecomp =       0, rbornstat=      0

Potential function:
     ntf     =       2, ntb     =       2, igb     =       0, nsnb    =      25
     ipol    =       0, gbsa    =       0, iesp    =       0
     dielc   =   1.00000, cut     =  10.00000, intdiel =   1.00000

Frozen or restrained atoms:
     ibelly  =       0, ntr     =       0

Molecular dynamics:
     nstlim  =    500000, nscm    =      1000, nrespa  =         1
     t       =   0.00000, dt      =   0.00200, vlimit  =  -1.00000

Langevin dynamics temperature regulation:
     ig      =  722006
     temp0   = 300.00000, tempi   = 300.00000, gamma_ln=   2.00000

Pressure regulation:
     ntp     =       1
     pres0   =   1.01325, comp    =  44.60000, taup    =   5.00000

SHAKE:
     ntc     =       2, jfastw  =       0
     tol     =   0.00001

Free energy options:
     icfe    =       1, ifsc    =       0, klambda =       1
     clambda =  0.9908, scalpha =  0.5000, scbeta  = 12.0000
     sceeorder =       2
     dynlmb =  0.0000 logdvdl =       0

Ewald parameters:
     verbose =       0, ew_type =       0, nbflag  =       1, use_pme =       1
     vdwmeth =       1, eedmeth =       1, netfrc  =       1
     Box X =   55.004   Box Y =   55.004   Box Z =   55.004
     Alpha =  109.471   Beta  =  109.471   Gamma =  109.471
     NFFT1 =   56       NFFT2 =   56       NFFT3 =   56
     Cutoff=   10.000   Tol   =0.100E-04
     Ewald Coefficient =  0.27511
     Interpolation order =    4
     TI Mask 1 :1; matches      5 atoms
     TI Mask 2 :2; matches      5 atoms
     TI region 1:   11414 atoms
     TI region 2:   11414 atoms
     Checking for mismatched coordinates.

--------------------------------------------------------------------------------
   3.  ATOMIC COORDINATES AND VELOCITIES
--------------------------------------------------------------------------------

default_name
 begin time read from input coords =   200.000 ps

 Number of triangulated 3-point waters found:     3803

     Sum of charges for TI region  1 =  -2.99999999
     Skip neutralizing charges...

     Sum of charges for TI region  2 =   0.00000000
     Skip neutralizing charges...

--------------------------------------------------------------------------------
   4.  RESULTS
 NSTEP =     1000   TIME(PS) =     202.000  TEMP(K) =   299.17  PRESS =  -794.0
 Etot   =    -28941.2215  EKtot   =      6787.2071  EPtot      =    -35728.4287
 BOND   =         0.6126  ANGLE   =         8.1848  DIHED      =         0.0000
 1-4 NB =         0.0000  1-4 EEL =         0.0000  VDWAALS    =      5290.7768
 EELEC  =    -41028.0028  EHBOND  =         0.0000  RESTRAINT  =         0.0000
 EKCMT  =      3416.9421  VIRIAL  =      5581.1603  VOLUME     =    126241.3883
                                                    Density    =         0.9025
 DV/DL  =       144.3523
 ------------------------------------------------------------------------------

      A V E R A G E S   O V E R    1000 S T E P S

 NSTEP =     1000   TIME(PS) =     202.000  TEMP(K) =   300.05  PRESS =  -820.3
 Etot   =    -28733.8880  EKtot   =      6807.1790  EPtot      =    -35541.0670
 BOND   =         1.0184  ANGLE   =         7.6276  DIHED      =         0.0000
 1-4 NB =         0.0000  1-4 EEL =         0.0000  VDWAALS    =      5212.9586
 EELEC  =    -40762.6716  EHBOND  =         0.0000  RESTRAINT  =         0.0000
 EKCMT  =      3416.2251  VIRIAL  =      5668.5624  VOLUME     =    127125.5326
                                                    Density    =         0.8962
 DV/DL  =       103.0452
 ------------------------------------------------------------------------------

      R M S  F L U C T U A T I O N S

 NSTEP =     1000   TIME(PS) =     202.000  TEMP(K) =     2.65  PRESS =   157.4
 Etot   =       121.8351  EKtot   =        60.0661  EPtot      =       106.6621
 BOND   =         0.6750  ANGLE   =         0.7346  DIHED      =         0.0000
 1-4 NB =         0.0000  1-4 EEL =         0.0000  VDWAALS    =       100.1532
 EELEC  =       182.5037  EHBOND  =         0.0000  RESTRAINT  =         0.0000
 EKCMT  =        46.6739  VIRIAL  =       447.3964  VOLUME     =       529.5663
                                                    Density    =         0.0037
 DV/DL  =        31.9145
 ------------------------------------------------------------------------------

      A V E R A G E S   O V E R    1000 S T E P S

 NSTEP =     1000   TIME(PS) =     202.000  TEMP(K) =   300.05  PRESS =  -820.3
 Etot   =    -28733.8880  EKtot   =      6807.1790  EPtot      =    -35541.0670
 BOND   =         1.0184  ANGLE   =         7.6276  DIHED      =         0.0000
 1-4 NB =         0.0000  1-4 EEL =         0.0000  VDWAALS    =      5212.9586
 EELEC  =    -40762.6716  EHBOND  =         0.0000  RESTRAINT  =         0.0000
 EKCMT  =      3416.2251  VIRIAL  =      5668.5624  VOLUME     =    127125.5326
                                                    Density    =         0.8962
 DV/DL  =       103.0452
 ------------------------------------------------------------------------------

      R M S  F L U C T U A T I O N S

 NSTEP =     1000   TIME(PS) =     202.000  TEMP(K) =     2.65  PRESS =   157.4
 Etot   =       121.8351  EKtot   =        60.0661  EPtot      =       106.6621
 BOND   =         0.6750  ANGLE   =         0.7346  DIHED      =         0.0000
 1-4 NB =         0.0000  1-4 EEL =         0.0000  VDWAALS    =       100.1532
 EELEC  =       182.5037  EHBOND  =         0.0000  RESTRAINT  =         0.0000
 EKCMT  =        46.6739  VIRIAL  =       447.3964  VOLUME     =       529.5663
                                                    Density    =         0.0037
 DV/DL  =        31.9145
 ------------------------------------------------------------------------------

      DV/DL, AVERAGES OVER    1000 STEPS

 NSTEP =     1000   TIME(PS) =     202.000  TEMP(K) =     2.65  PRESS =     0.0
 Etot   =         0.0000  EKtot   =         0.0000  EPtot      =       103.0452
 BOND   =         0.0000  ANGLE   =         0.0000  DIHED      =         0.0000
 1-4 NB =         0.0000  1-4 EEL =         0.0000  VDWAALS    =       -12.8738
 EELEC  =       115.9190  EHBOND  =         0.0000  RESTRAINT  =         0.0000
 EKCMT  =         0.0000  VIRIAL  =         0.0000  VOLUME     =         0.0000
                                                    Density    =         0.0000
 DV/DL  =       103.0452
 ------------------------------------------------------------------------------

      A V E R A G E S   O V E R    1000 S T E P S

 NSTEP =     2000   TIME(PS) =     204.000  TEMP(K) =   300.69  PRESS =  -829.8
 Etot   =    -28861.4671  EKtot   =      6821.6284  EPtot      =    -35683.0955
 BOND   =         1.0654  ANGLE   =         7.6476  DIHED      =         0.0000
 1-4 NB =         0.0000  1-4 EEL =         0.0000  VDWAALS    =      5214.6900
 EELEC  =    -40906.4986  EHBOND  =         0.0000  RESTRAINT  =         0.0000
 EKCMT  =      3428.0652  VIRIAL  =      5673.2331  VOLUME     =    125245.5691
                                                    Density    =         0.9097
 DV/DL  =       102.0879
 ------------------------------------------------------------------------------

      R M S  F L U C T U A T I O N S

 NSTEP =     2000   TIME(PS) =     204.000  TEMP(K) =     2.40  PRESS =   180.8
 Etot   =        60.4885  EKtot   =        54.3954  EPtot      =        63.9794
 BOND   =         0.8036  ANGLE   =         0.7462  DIHED      =         0.0000
 1-4 NB =         0.0000  1-4 EEL =         0.0000  VDWAALS    =        94.7659
 EELEC  =       130.2898  EHBOND  =         0.0000  RESTRAINT  =         0.0000
 EKCMT  =        46.7538  VIRIAL  =       493.2046  VOLUME     =       544.3952
                                                    Density    =         0.0040
 DV/DL  =        38.9740
 ------------------------------------------------------------------------------

      A V E R A G E S   O V E R    1000 S T E P S

 NSTEP =     2000   TIME(PS) =     204.000  TEMP(K) =   300.69  PRESS =  -829.8
 Etot   =    -28861.4671  EKtot   =      6821.6284  EPtot      =    -35683.0955
 BOND   =         1.0654  ANGLE   =         7.6476  DIHED      =         0.0000
 1-4 NB =         0.0000  1-4 EEL =         0.0000  VDWAALS    =      5214.6900
 EELEC  =    -40906.4986  EHBOND  =         0.0000  RESTRAINT  =         0.0000
 EKCMT  =      3428.0652  VIRIAL  =      5673.2331  VOLUME     =    125245.5691
                                                    Density    =         0.9097
 DV/DL  =       102.0879
 ------------------------------------------------------------------------------

      R M S  F L U C T U A T I O N S

 NSTEP =     2000   TIME(PS) =     204.000  TEMP(K) =     2.40  PRESS =   180.8
 Etot   =        60.4885  EKtot   =        54.3954  EPtot      =        63.9794
 BOND   =         0.8036  ANGLE   =         0.7462  DIHED      =         0.0000
 1-4 NB =         0.0000  1-4 EEL =         0.0000  VDWAALS    =        94.7659
 EELEC  =       130.2898  EHBOND  =         0.0000  RESTRAINT  =         0.0000
 EKCMT  =        46.7538  VIRIAL  =       493.2046  VOLUME     =       544.3952
                                                    Density    =         0.0040
 DV/DL  =        38.9740
 ------------------------------------------------------------------------------

      DV/DL, AVERAGES OVER    1000 STEPS

 NSTEP =     2000   TIME(PS) =     204.000  TEMP(K) =     2.40  PRESS =     0.0
 Etot   =         0.0000  EKtot   =         0.0000  EPtot      =       102.0879
 BOND   =         0.0000  ANGLE   =         0.0000  DIHED      =         0.0000
 1-4 NB =         0.0000  1-4 EEL =         0.0000  VDWAALS    =       -17.3858
 EELEC  =       119.4737  EHBOND  =         0.0000  RESTRAINT  =         0.0000
 EKCMT  =         0.0000  VIRIAL  =         0.0000  VOLUME     =         0.0000
                                                    Density    =         0.0000
 DV/DL  =       102.0879
 ------------------------------------------------------------------------------

      A V E R A G E S   O V E R    1000 S T E P S

 NSTEP =   500000   TIME(PS) =    1200.000  TEMP(K) =   299.78  PRESS =   -32.1
 Etot   =    -29466.1577  EKtot   =      6801.0299  EPtot      =    -36267.1875
 BOND   =         1.3974  ANGLE   =         8.3037  DIHED      =         0.0000
 1-4 NB =         0.0000  1-4 EEL =         0.0000  VDWAALS    =      5423.3078
 EELEC  =    -41700.1966  EHBOND  =         0.0000  RESTRAINT  =         0.0000
 EKCMT  =      3390.6369  VIRIAL  =      3471.0725  VOLUME     =    115906.1513
                                                    Density    =         0.9830
 DV/DL  =        35.3196
 ------------------------------------------------------------------------------

      R M S  F L U C T U A T I O N S

 NSTEP =   500000   TIME(PS) =    1200.000  TEMP(K) =     2.13  PRESS =   147.2
 Etot   =        49.0051  EKtot   =        48.4315  EPtot      =        58.8865
 BOND   =         0.8420  ANGLE   =         1.1635  DIHED      =         0.0000
 1-4 NB =         0.0000  1-4 EEL =         0.0000  VDWAALS    =        73.5388
 EELEC  =        98.2222  EHBOND  =         0.0000  RESTRAINT  =         0.0000
 EKCMT  =        44.2177  VIRIAL  =       364.8396  VOLUME     =        35.1430
                                                    Density    =         0.0003
 DV/DL  =        73.7330
 ------------------------------------------------------------------------------

      A V E R A G E S   O V E R    1000 S T E P S

 NSTEP =   500000   TIME(PS) =    1200.000  TEMP(K) =   299.78  PRESS =   -32.1
 Etot   =    -29466.1577  EKtot   =      6801.0299  EPtot      =    -36267.1875
 BOND   =         1.3974  ANGLE   =         8.3037  DIHED      =         0.0000
 1-4 NB =         0.0000  1-4 EEL =         0.0000  VDWAALS    =      5423.3078
 EELEC  =    -41700.1966  EHBOND  =         0.0000  RESTRAINT  =         0.0000
 EKCMT  =      3390.6369  VIRIAL  =      3471.0725  VOLUME     =    115906.1513
                                                    Density    =         0.9830
 DV/DL  =        35.3196
 ------------------------------------------------------------------------------

      R M S  F L U C T U A T I O N S

 NSTEP =   500000   TIME(PS) =    1200.000  TEMP(K) =     2.13  PRESS =   147.2
 Etot   =        49.0051  EKtot   =        48.4315  EPtot      =        58.8865
 BOND   =         0.8420  ANGLE   =         1.1635  DIHED      =         0.0000
 1-4 NB =         0.0000  1-4 EEL =         0.0000  VDWAALS    =        73.5388
 EELEC  =        98.2222  EHBOND  =         0.0000  RESTRAINT  =         0.0000
 EKCMT  =        44.2177  VIRIAL  =       364.8396  VOLUME     =        35.1430
                                                    Density    =         0.0003
 DV/DL  =        73.7330
 ------------------------------------------------------------------------------

      DV/DL, AVERAGES OVER    1000 STEPS

 NSTEP =   500000   TIME(PS) =    1200.000  TEMP(K) =     2.13  PRESS =     0.0
 Etot   =         0.0000  EKtot   =         0.0000  EPtot      =        35.3196
 BOND   =         0.0000  ANGLE   =         0.0000  DIHED      =         0.0000
 1-4 NB =         0.0000  1-4 EEL =         0.0000  VDWAALS    =       -97.4308
 EELEC  =       132.7504  EHBOND  =         0.0000  RESTRAINT  =         0.0000
 EKCMT  =         0.0000  VIRIAL  =         0.0000  VOLUME     =         0.0000
                                                    Density    =         0.0000
 DV/DL  =        35.3196
 ------------------------------------------------------------------------------

      A V E R A G E S   O V E R  500000 S T E P S

 NSTEP =   500000   TIME(PS) =    1200.000  TEMP(K) =   300.07  PRESS =   -10.3
 Etot   =    -29452.6423  EKtot   =      6807.7093  EPtot      =    -36260.3516
 BOND   =         1.2199  ANGLE   =         7.7441  DIHED      =         0.0000
 1-4 NB =         0.0000  1-4 EEL =         0.0000  VDWAALS    =      5425.8270
 EELEC  =    -41695.1426  EHBOND  =         0.0000  RESTRAINT  =         0.0000
 EKCMT  =      3414.5196  VIRIAL  =      3441.6552  VOLUME     =    115897.6644
                                                    Density    =         0.9831
 DV/DL  =        39.4902
 ------------------------------------------------------------------------------

      R M S  F L U C T U A T I O N S

 NSTEP =   500000   TIME(PS) =    1200.000  TEMP(K) =     2.82  PRESS =   190.3
 Etot   =       124.7636  EKtot   =        64.0361  EPtot      =       106.1914
 BOND   =         0.8671  ANGLE   =         0.9488  DIHED      =         0.0000
 1-4 NB =         0.0000  1-4 EEL =         0.0000  VDWAALS    =        94.0106
 EELEC  =       163.1779  EHBOND  =         0.0000  RESTRAINT  =         0.0000
 EKCMT  =        44.9876  VIRIAL  =       480.3675  VOLUME     =       897.1381
                                                    Density    =         0.0071
 DV/DL  =        78.7157
 ------------------------------------------------------------------------------

      A V E R A G E S   O V E R  500000 S T E P S

 NSTEP =   500000   TIME(PS) =    1200.000  TEMP(K) =   300.07  PRESS =   -10.3
 Etot   =    -29452.6423  EKtot   =      6807.7093  EPtot      =    -36260.3516
 BOND   =         1.2199  ANGLE   =         7.7441  DIHED      =         0.0000
 1-4 NB =         0.0000  1-4 EEL =         0.0000  VDWAALS    =      5425.8270
 EELEC  =    -41695.1426  EHBOND  =         0.0000  RESTRAINT  =         0.0000
 EKCMT  =      3414.5196  VIRIAL  =      3441.6552  VOLUME     =    115897.6644
                                                    Density    =         0.9831
 DV/DL  =        39.4902
 ------------------------------------------------------------------------------

      R M S  F L U C T U A T I O N S

 NSTEP =   500000   TIME(PS) =    1200.000  TEMP(K) =     2.82  PRESS =   190.3
 Etot   =       124.7636  EKtot   =        64.0361  EPtot      =       106.1914
 BOND   =         0.8671  ANGLE   =         0.9488  DIHED      =         0.0000
 1-4 NB =         0.0000  1-4 EEL =         0.0000  VDWAALS    =        94.0106
 EELEC  =       163.1779  EHBOND  =         0.0000  RESTRAINT  =         0.0000
 EKCMT  =        44.9876  VIRIAL  =       480.3675  VOLUME     =       897.1381
                                                    Density    =         0.0071
 DV/DL  =        78.7157
 ------------------------------------------------------------------------------

      DV/DL, AVERAGES OVER  500000 STEPS

 NSTEP =   500000   TIME(PS) =    1200.000  TEMP(K) =     2.82  PRESS =     0.0
 Etot   =         0.0000  EKtot   =         0.0000  EPtot      =        39.4902
 BOND   =         0.0000  ANGLE   =         0.0000  DIHED      =         0.0000
 1-4 NB =         0.0000  1-4 EEL =         0.0000  VDWAALS    =       -88.6038
 EELEC  =       128.0939  EHBOND  =         0.0000  RESTRAINT  =         0.0000
 EKCMT  =         0.0000  VIRIAL  =         0.0000  VOLUME     =         0.0000
                                                    Density    =         0.0000
 DV/DL  =        39.4902
 ------------------------------------------------------------------------------
