-------------------------------------------------------
          Amber 20 PMEMD                              2020
          -------------------------------------------------------

  [-O]verwriting output

File Assignments:

 Here is the input file:

 &cntrl
   nstlim=500000, nscm=1000,
   ntx=5, irest=1, ntpr=1000,
   tempi=300.0, temp0=300.0, ntt=3, gamma_ln=2.0,
   ntp=1, pres0=1.01325, taup=5.0,
   ntb=2, igb=0, cut=10.0,
   dt=0.002, ig=-1,
   ntc=2, ntf=2,
   iwrap=0,
   ntwr=1000, ntwx=50000, ntave=1000,
   ioutfm=1, ntwv=-1,
   ifsc = 0, icfe=1,
   clambda=0.79366,
   timask1=':1',
   timask2=':2',
/

Note: ig = -1. Setting random seed to   740875 based on wallclock time in
      microseconds.

--------------------------------------------------------------------------------
   1.  RESOURCE   USE:
--------------------------------------------------------------------------------

 getting box info from netcdf restart file
 NATOM  =   11419 NTYPES =       6 NBONH =   11409 MBONA  =       8
 NTHETH =       0 MTHETA =      12 NPHIH =       0 MPHIA  =       0
 NHPARM =       0 NPARM  =       0 NNB   =   15234 NRES   =    3805
 NBONA  =       8 NTHETA =      12 NPHIA =       0 NUMBND =       3
 NUMANG =       1 NPTRA  =       0 NATYP =       4 NPHB   =       1
 IFBOX  =       2 NMXRS  =       5 IFCAP =       0 NEXTRA =       0
 NCOPY  =       0

     BOX TYPE: TRUNCATED OCTAHEDRON

--------------------------------------------------------------------------------
   2.  CONTROL  DATA  FOR  THE  RUN
--------------------------------------------------------------------------------

default_name

General flags:
     imin    =       0, nmropt  =       0

Nature and format of input:
     ntx     =       5, irest   =       1, ntrx    =       1

Nature and format of output:
     ntxo    =       2, ntpr    =    1000, ntrx    =       1, ntwr    =    1000
     iwrap   =       0, ntwx    =   50000, ntwv    =      -1, ntwe    =       0
     ioutfm  =       1, ntwprt  =       0, idecomp =       0, rbornstat=      0

Potential function:
     ntf     =       2, ntb     =       2, igb     =       0, nsnb    =      25
     ipol    =       0, gbsa    =       0, iesp    =       0
     dielc   =   1.00000, cut     =  10.00000, intdiel =   1.00000

Frozen or restrained atoms:
     ibelly  =       0, ntr     =       0

Molecular dynamics:
     nstlim  =    500000, nscm    =      1000, nrespa  =         1
     t       =   0.00000, dt      =   0.00200, vlimit  =  -1.00000

Langevin dynamics temperature regulation:
     ig      =  740875
     temp0   = 300.00000, tempi   = 300.00000, gamma_ln=   2.00000

Pressure regulation:
     ntp     =       1
     pres0   =   1.01325, comp    =  44.60000, taup    =   5.00000

SHAKE:
     ntc     =       2, jfastw  =       0
     tol     =   0.00001

Free energy options:
     icfe    =       1, ifsc    =       0, klambda =       1
     clambda =  0.7937, scalpha =  0.5000, scbeta  = 12.0000
     sceeorder =       2
     dynlmb =  0.0000 logdvdl =       0

Ewald parameters:
     verbose =       0, ew_type =       0, nbflag  =       1, use_pme =       1
     vdwmeth =       1, eedmeth =       1, netfrc  =       1
     Box X =   55.004   Box Y =   55.004   Box Z =   55.004
     Alpha =  109.471   Beta  =  109.471   Gamma =  109.471
     NFFT1 =   56       NFFT2 =   56       NFFT3 =   56
     Cutoff=   10.000   Tol   =0.100E-04
     Ewald Coefficient =  0.27511
     Interpolation order =    4
     TI Mask 1 :1; matches      5 atoms
     TI Mask 2 :2; matches      5 atoms
     TI region 1:   11414 atoms
     TI region 2:   11414 atoms
     Checking for mismatched coordinates.

--------------------------------------------------------------------------------
   3.  ATOMIC COORDINATES AND VELOCITIES
--------------------------------------------------------------------------------

default_name
 begin time read from input coords =   200.000 ps

 Number of triangulated 3-point waters found:     3803

     Sum of charges for TI region  1 =  -2.99999999
     Skip neutralizing charges...

     Sum of charges for TI region  2 =   0.00000000
     Skip neutralizing charges...

--------------------------------------------------------------------------------
   4.  RESULTS
 NSTEP =     1000   TIME(PS) =     202.000  TEMP(K) =   297.87  PRESS = -1088.2
 Etot   =    -29067.7305  EKtot   =      6757.6591  EPtot      =    -35825.3895
 BOND   =         2.0246  ANGLE   =         8.1903  DIHED      =         0.0000
 1-4 NB =         0.0000  1-4 EEL =         0.0000  VDWAALS    =      5102.1947
 EELEC  =    -40937.7991  EHBOND  =         0.0000  RESTRAINT  =         0.0000
 EKCMT  =      3427.1257  VIRIAL  =      6394.6135  VOLUME     =    126294.8042
                                                    Density    =         0.9021
 DV/DL  =       357.8905
 ------------------------------------------------------------------------------

      A V E R A G E S   O V E R    1000 S T E P S

 NSTEP =     1000   TIME(PS) =     202.000  TEMP(K) =   298.37  PRESS =  -796.9
 Etot   =    -28969.0902  EKtot   =      6769.0126  EPtot      =    -35738.1028
 BOND   =         1.0133  ANGLE   =         8.0535  DIHED      =         0.0000
 1-4 NB =         0.0000  1-4 EEL =         0.0000  VDWAALS    =      5271.9697
 EELEC  =    -41019.1393  EHBOND  =         0.0000  RESTRAINT  =         0.0000
 EKCMT  =      3386.6186  VIRIAL  =      5575.1101  VOLUME     =    127186.5322
                                                    Density    =         0.8958
 DV/DL  =       352.6042
 ------------------------------------------------------------------------------

      R M S  F L U C T U A T I O N S

 NSTEP =     1000   TIME(PS) =     202.000  TEMP(K) =     2.98  PRESS =   115.8
 Etot   =        99.4420  EKtot   =        67.6416  EPtot      =        69.5587
 BOND   =         0.5966  ANGLE   =         1.0645  DIHED      =         0.0000
 1-4 NB =         0.0000  1-4 EEL =         0.0000  VDWAALS    =        65.3664
 EELEC  =       104.5785  EHBOND  =         0.0000  RESTRAINT  =         0.0000
 EKCMT  =        54.2665  VIRIAL  =       340.2352  VOLUME     =       508.5755
                                                    Density    =         0.0036
 DV/DL  =        23.0906
 ------------------------------------------------------------------------------

      A V E R A G E S   O V E R    1000 S T E P S

 NSTEP =     1000   TIME(PS) =     202.000  TEMP(K) =   298.37  PRESS =  -796.9
 Etot   =    -28969.0902  EKtot   =      6769.0126  EPtot      =    -35738.1028
 BOND   =         1.0133  ANGLE   =         8.0535  DIHED      =         0.0000
 1-4 NB =         0.0000  1-4 EEL =         0.0000  VDWAALS    =      5271.9697
 EELEC  =    -41019.1393  EHBOND  =         0.0000  RESTRAINT  =         0.0000
 EKCMT  =      3386.6186  VIRIAL  =      5575.1101  VOLUME     =    127186.5322
                                                    Density    =         0.8958
 DV/DL  =       352.6042
 ------------------------------------------------------------------------------

      R M S  F L U C T U A T I O N S

 NSTEP =     1000   TIME(PS) =     202.000  TEMP(K) =     2.98  PRESS =   115.8
 Etot   =        99.4420  EKtot   =        67.6416  EPtot      =        69.5587
 BOND   =         0.5966  ANGLE   =         1.0645  DIHED      =         0.0000
 1-4 NB =         0.0000  1-4 EEL =         0.0000  VDWAALS    =        65.3664
 EELEC  =       104.5785  EHBOND  =         0.0000  RESTRAINT  =         0.0000
 EKCMT  =        54.2665  VIRIAL  =       340.2352  VOLUME     =       508.5755
                                                    Density    =         0.0036
 DV/DL  =        23.0906
 ------------------------------------------------------------------------------

      DV/DL, AVERAGES OVER    1000 STEPS

 NSTEP =     1000   TIME(PS) =     202.000  TEMP(K) =     2.98  PRESS =     0.0
 Etot   =         0.0000  EKtot   =         0.0000  EPtot      =       352.6042
 BOND   =         0.0000  ANGLE   =         0.0000  DIHED      =         0.0000
 1-4 NB =         0.0000  1-4 EEL =         0.0000  VDWAALS    =        -8.4801
 EELEC  =       361.0842  EHBOND  =         0.0000  RESTRAINT  =         0.0000
 EKCMT  =         0.0000  VIRIAL  =         0.0000  VOLUME     =         0.0000
                                                    Density    =         0.0000
 DV/DL  =       352.6042
 ------------------------------------------------------------------------------

      A V E R A G E S   O V E R    1000 S T E P S

 NSTEP =     2000   TIME(PS) =     204.000  TEMP(K) =   297.36  PRESS =  -763.9
 Etot   =    -29118.4934  EKtot   =      6746.1566  EPtot      =    -35864.6501
 BOND   =         1.3960  ANGLE   =         8.1455  DIHED      =         0.0000
 1-4 NB =         0.0000  1-4 EEL =         0.0000  VDWAALS    =      5279.2505
 EELEC  =    -41153.4420  EHBOND  =         0.0000  RESTRAINT  =         0.0000
 EKCMT  =      3393.2691  VIRIAL  =      5462.2140  VOLUME     =    125398.8172
                                                    Density    =         0.9086
 DV/DL  =       354.9200
 ------------------------------------------------------------------------------

      R M S  F L U C T U A T I O N S

 NSTEP =     2000   TIME(PS) =     204.000  TEMP(K) =     2.41  PRESS =   191.3
 Etot   =        93.4097  EKtot   =        54.5996  EPtot      =       101.7883
 BOND   =         0.8887  ANGLE   =         0.9284  DIHED      =         0.0000
 1-4 NB =         0.0000  1-4 EEL =         0.0000  VDWAALS    =       101.0770
 EELEC  =       152.3187  EHBOND  =         0.0000  RESTRAINT  =         0.0000
 EKCMT  =        42.2063  VIRIAL  =       517.5447  VOLUME     =       468.0958
                                                    Density    =         0.0034
 DV/DL  =        24.5198
 ------------------------------------------------------------------------------

      A V E R A G E S   O V E R    1000 S T E P S

 NSTEP =     2000   TIME(PS) =     204.000  TEMP(K) =   297.36  PRESS =  -763.9
 Etot   =    -29118.4934  EKtot   =      6746.1566  EPtot      =    -35864.6501
 BOND   =         1.3960  ANGLE   =         8.1455  DIHED      =         0.0000
 1-4 NB =         0.0000  1-4 EEL =         0.0000  VDWAALS    =      5279.2505
 EELEC  =    -41153.4420  EHBOND  =         0.0000  RESTRAINT  =         0.0000
 EKCMT  =      3393.2691  VIRIAL  =      5462.2140  VOLUME     =    125398.8172
                                                    Density    =         0.9086
 DV/DL  =       354.9200
 ------------------------------------------------------------------------------

      R M S  F L U C T U A T I O N S

 NSTEP =     2000   TIME(PS) =     204.000  TEMP(K) =     2.41  PRESS =   191.3
 Etot   =        93.4097  EKtot   =        54.5996  EPtot      =       101.7883
 BOND   =         0.8887  ANGLE   =         0.9284  DIHED      =         0.0000
 1-4 NB =         0.0000  1-4 EEL =         0.0000  VDWAALS    =       101.0770
 EELEC  =       152.3187  EHBOND  =         0.0000  RESTRAINT  =         0.0000
 EKCMT  =        42.2063  VIRIAL  =       517.5447  VOLUME     =       468.0958
                                                    Density    =         0.0034
 DV/DL  =        24.5198
 ------------------------------------------------------------------------------

      DV/DL, AVERAGES OVER    1000 STEPS

 NSTEP =     2000   TIME(PS) =     204.000  TEMP(K) =     2.41  PRESS =     0.0
 Etot   =         0.0000  EKtot   =         0.0000  EPtot      =       354.9200
 BOND   =         0.0000  ANGLE   =         0.0000  DIHED      =         0.0000
 1-4 NB =         0.0000  1-4 EEL =         0.0000  VDWAALS    =        -8.0323
 EELEC  =       362.9523  EHBOND  =         0.0000  RESTRAINT  =         0.0000
 EKCMT  =         0.0000  VIRIAL  =         0.0000  VOLUME     =         0.0000
                                                    Density    =         0.0000
 DV/DL  =       354.9200
 ------------------------------------------------------------------------------

      A V E R A G E S   O V E R    1000 S T E P S

 NSTEP =   500000   TIME(PS) =    1200.000  TEMP(K) =   300.81  PRESS =   -49.8
 Etot   =    -29442.8034  EKtot   =      6824.5206  EPtot      =    -36267.3240
 BOND   =         0.9773  ANGLE   =         8.2680  DIHED      =         0.0000
 1-4 NB =         0.0000  1-4 EEL =         0.0000  VDWAALS    =      5388.4479
 EELEC  =    -41665.0172  EHBOND  =         0.0000  RESTRAINT  =         0.0000
 EKCMT  =      3425.7054  VIRIAL  =      3550.3383  VOLUME     =    115814.1390
                                                    Density    =         0.9837
 DV/DL  =       344.6479
 ------------------------------------------------------------------------------

      R M S  F L U C T U A T I O N S

 NSTEP =   500000   TIME(PS) =    1200.000  TEMP(K) =     2.51  PRESS =   140.7
 Etot   =        69.5269  EKtot   =        56.9576  EPtot      =        64.5309
 BOND   =         0.7084  ANGLE   =         0.9931  DIHED      =         0.0000
 1-4 NB =         0.0000  1-4 EEL =         0.0000  VDWAALS    =        72.2086
 EELEC  =       101.1529  EHBOND  =         0.0000  RESTRAINT  =         0.0000
 EKCMT  =        42.1399  VIRIAL  =       365.4743  VOLUME     =        24.5713
                                                    Density    =         0.0002
 DV/DL  =        25.4570
 ------------------------------------------------------------------------------

      A V E R A G E S   O V E R    1000 S T E P S

 NSTEP =   500000   TIME(PS) =    1200.000  TEMP(K) =   300.81  PRESS =   -49.8
 Etot   =    -29442.8034  EKtot   =      6824.5206  EPtot      =    -36267.3240
 BOND   =         0.9773  ANGLE   =         8.2680  DIHED      =         0.0000
 1-4 NB =         0.0000  1-4 EEL =         0.0000  VDWAALS    =      5388.4479
 EELEC  =    -41665.0172  EHBOND  =         0.0000  RESTRAINT  =         0.0000
 EKCMT  =      3425.7054  VIRIAL  =      3550.3383  VOLUME     =    115814.1390
                                                    Density    =         0.9837
 DV/DL  =       344.6479
 ------------------------------------------------------------------------------

      R M S  F L U C T U A T I O N S

 NSTEP =   500000   TIME(PS) =    1200.000  TEMP(K) =     2.51  PRESS =   140.7
 Etot   =        69.5269  EKtot   =        56.9576  EPtot      =        64.5309
 BOND   =         0.7084  ANGLE   =         0.9931  DIHED      =         0.0000
 1-4 NB =         0.0000  1-4 EEL =         0.0000  VDWAALS    =        72.2086
 EELEC  =       101.1529  EHBOND  =         0.0000  RESTRAINT  =         0.0000
 EKCMT  =        42.1399  VIRIAL  =       365.4743  VOLUME     =        24.5713
                                                    Density    =         0.0002
 DV/DL  =        25.4570
 ------------------------------------------------------------------------------

      DV/DL, AVERAGES OVER    1000 STEPS

 NSTEP =   500000   TIME(PS) =    1200.000  TEMP(K) =     2.51  PRESS =     0.0
 Etot   =         0.0000  EKtot   =         0.0000  EPtot      =       344.6479
 BOND   =         0.0000  ANGLE   =         0.0000  DIHED      =         0.0000
 1-4 NB =         0.0000  1-4 EEL =         0.0000  VDWAALS    =        -9.0088
 EELEC  =       353.6567  EHBOND  =         0.0000  RESTRAINT  =         0.0000
 EKCMT  =         0.0000  VIRIAL  =         0.0000  VOLUME     =         0.0000
                                                    Density    =         0.0000
 DV/DL  =       344.6479
 ------------------------------------------------------------------------------

      A V E R A G E S   O V E R  500000 S T E P S

 NSTEP =   500000   TIME(PS) =    1200.000  TEMP(K) =   300.03  PRESS =   -10.3
 Etot   =    -29498.8117  EKtot   =      6806.7177  EPtot      =    -36305.5294
 BOND   =         1.2659  ANGLE   =         7.7752  DIHED      =         0.0000
 1-4 NB =         0.0000  1-4 EEL =         0.0000  VDWAALS    =      5429.0946
 EELEC  =    -41743.6650  EHBOND  =         0.0000  RESTRAINT  =         0.0000
 EKCMT  =      3413.2486  VIRIAL  =      3440.5624  VOLUME     =    115949.2323
                                                    Density    =         0.9827
 DV/DL  =       349.4800
 ------------------------------------------------------------------------------

      R M S  F L U C T U A T I O N S

 NSTEP =   500000   TIME(PS) =    1200.000  TEMP(K) =     2.77  PRESS =   190.3
 Etot   =       115.5784  EKtot   =        62.7864  EPtot      =        99.5069
 BOND   =         0.8940  ANGLE   =         0.9487  DIHED      =         0.0000
 1-4 NB =         0.0000  1-4 EEL =         0.0000  VDWAALS    =        92.6007
 EELEC  =       153.6828  EHBOND  =         0.0000  RESTRAINT  =         0.0000
 EKCMT  =        44.9032  VIRIAL  =       479.7585  VOLUME     =       919.1752
                                                    Density    =         0.0073
 DV/DL  =        26.5139
 ------------------------------------------------------------------------------

      A V E R A G E S   O V E R  500000 S T E P S

 NSTEP =   500000   TIME(PS) =    1200.000  TEMP(K) =   300.03  PRESS =   -10.3
 Etot   =    -29498.8117  EKtot   =      6806.7177  EPtot      =    -36305.5294
 BOND   =         1.2659  ANGLE   =         7.7752  DIHED      =         0.0000
 1-4 NB =         0.0000  1-4 EEL =         0.0000  VDWAALS    =      5429.0946
 EELEC  =    -41743.6650  EHBOND  =         0.0000  RESTRAINT  =         0.0000
 EKCMT  =      3413.2486  VIRIAL  =      3440.5624  VOLUME     =    115949.2323
                                                    Density    =         0.9827
 DV/DL  =       349.4800
 ------------------------------------------------------------------------------

      R M S  F L U C T U A T I O N S

 NSTEP =   500000   TIME(PS) =    1200.000  TEMP(K) =     2.77  PRESS =   190.3
 Etot   =       115.5784  EKtot   =        62.7864  EPtot      =        99.5069
 BOND   =         0.8940  ANGLE   =         0.9487  DIHED      =         0.0000
 1-4 NB =         0.0000  1-4 EEL =         0.0000  VDWAALS    =        92.6007
 EELEC  =       153.6828  EHBOND  =         0.0000  RESTRAINT  =         0.0000
 EKCMT  =        44.9032  VIRIAL  =       479.7585  VOLUME     =       919.1752
                                                    Density    =         0.0073
 DV/DL  =        26.5139
 ------------------------------------------------------------------------------

      DV/DL, AVERAGES OVER  500000 STEPS

 NSTEP =   500000   TIME(PS) =    1200.000  TEMP(K) =     2.77  PRESS =     0.0
 Etot   =         0.0000  EKtot   =         0.0000  EPtot      =       349.4800
 BOND   =         0.0000  ANGLE   =         0.0000  DIHED      =         0.0000
 1-4 NB =         0.0000  1-4 EEL =         0.0000  VDWAALS    =        -8.7652
 EELEC  =       358.2451  EHBOND  =         0.0000  RESTRAINT  =         0.0000
 EKCMT  =         0.0000  VIRIAL  =         0.0000  VOLUME     =         0.0000
                                                    Density    =         0.0000
 DV/DL  =       349.4800
 ------------------------------------------------------------------------------
