-------------------------------------------------------
          Amber 20 PMEMD                              2020
          -------------------------------------------------------

  [-O]verwriting output

File Assignments:

 Here is the input file:

 &cntrl
   nstlim=500000, nscm=1000,
   ntx=5, irest=1, ntpr=1000,
   tempi=300.0, temp0=300.0, ntt=3, gamma_ln=2.0,
   ntp=1, pres0=1.01325, taup=5.0,
   ntb=2, igb=0, cut=10.0,
   dt=0.002, ig=-1,
   ntc=2, ntf=2,
   iwrap=0,
   ntwr=1000, ntwx=50000, ntave=1000,
   ioutfm=1, ntwv=-1,
   ifsc = 0, icfe=1,
   clambda=0.88495,
   timask1=':1',
   timask2=':2', crgmask = ':2',
/

Note: ig = -1. Setting random seed to   954510 based on wallclock time in
      microseconds.

--------------------------------------------------------------------------------
   1.  RESOURCE   USE:
--------------------------------------------------------------------------------

 getting box info from netcdf restart file
 NATOM  =   11419 NTYPES =       4 NBONH =   11409 MBONA  =       8
 NTHETH =       0 MTHETA =      12 NPHIH =       0 MPHIA  =       0
 NHPARM =       0 NPARM  =       0 NNB   =   15234 NRES   =    3805
 NBONA  =       8 NTHETA =      12 NPHIA =       0 NUMBND =       3
 NUMANG =       1 NPTRA  =       0 NATYP =       4 NPHB   =       1
 IFBOX  =       2 NMXRS  =       5 IFCAP =       0 NEXTRA =       0
 NCOPY  =       0

     BOX TYPE: TRUNCATED OCTAHEDRON

--------------------------------------------------------------------------------
   2.  CONTROL  DATA  FOR  THE  RUN
--------------------------------------------------------------------------------

default_name

General flags:
     imin    =       0, nmropt  =       0

Nature and format of input:
     ntx     =       5, irest   =       1, ntrx    =       1

Nature and format of output:
     ntxo    =       2, ntpr    =    1000, ntrx    =       1, ntwr    =    1000
     iwrap   =       0, ntwx    =   50000, ntwv    =      -1, ntwe    =       0
     ioutfm  =       1, ntwprt  =       0, idecomp =       0, rbornstat=      0

Potential function:
     ntf     =       2, ntb     =       2, igb     =       0, nsnb    =      25
     ipol    =       0, gbsa    =       0, iesp    =       0
     dielc   =   1.00000, cut     =  10.00000, intdiel =   1.00000

Frozen or restrained atoms:
     ibelly  =       0, ntr     =       0

Molecular dynamics:
     nstlim  =    500000, nscm    =      1000, nrespa  =         1
     t       =   0.00000, dt      =   0.00200, vlimit  =  -1.00000

Langevin dynamics temperature regulation:
     ig      =  954510
     temp0   = 300.00000, tempi   = 300.00000, gamma_ln=   2.00000

Pressure regulation:
     ntp     =       1
     pres0   =   1.01325, comp    =  44.60000, taup    =   5.00000

SHAKE:
     ntc     =       2, jfastw  =       0
     tol     =   0.00001

Free energy options:
     icfe    =       1, ifsc    =       0, klambda =       1
     clambda =  0.8850, scalpha =  0.5000, scbeta  = 12.0000
     sceeorder =       2
     dynlmb =  0.0000 logdvdl =       0

Ewald parameters:
     verbose =       0, ew_type =       0, nbflag  =       1, use_pme =       1
     vdwmeth =       1, eedmeth =       1, netfrc  =       1
     Box X =   55.004   Box Y =   55.004   Box Z =   55.004
     Alpha =  109.471   Beta  =  109.471   Gamma =  109.471
     NFFT1 =   56       NFFT2 =   56       NFFT3 =   56
     Cutoff=   10.000   Tol   =0.100E-04
     Ewald Coefficient =  0.27511
     Interpolation order =    4
     TI Mask 1 :1; matches      5 atoms
     TI Mask 2 :2; matches      5 atoms
     TI region 1:   11414 atoms
     TI region 2:   11414 atoms
Removing charge of       1.4352 from atom       6
Removing charge of      -1.1088 from atom       7
Removing charge of      -1.1088 from atom       8
Removing charge of      -1.1088 from atom       9
Removing charge of      -1.1088 from atom      10
Total charge of  -2.99999999 removed from       5 atoms
     Checking for mismatched coordinates.

--------------------------------------------------------------------------------
   3.  ATOMIC COORDINATES AND VELOCITIES
--------------------------------------------------------------------------------

default_name
 begin time read from input coords =   200.000 ps

 Number of triangulated 3-point waters found:     3803

     Sum of charges for TI region  1 =  -2.99999999
     Skip neutralizing charges...

     Sum of charges for TI region  2 =   0.00000000
     Skip neutralizing charges...

--------------------------------------------------------------------------------
   4.  RESULTS
 NSTEP =     1000   TIME(PS) =     202.000  TEMP(K) =   300.13  PRESS =  -995.0
 Etot   =    -28832.4786  EKtot   =      6809.0410  EPtot      =    -35641.5196
 BOND   =         2.1230  ANGLE   =         7.3908  DIHED      =         0.0000
 1-4 NB =         0.0000  1-4 EEL =         0.0000  VDWAALS    =      5077.4114
 EELEC  =    -40728.4447  EHBOND  =         0.0000  RESTRAINT  =         0.0000
 EKCMT  =      3394.4583  VIRIAL  =      6109.1741  VOLUME     =    126363.7859
                                                    Density    =         0.9016
 DV/DL  =       225.3193
 ------------------------------------------------------------------------------

      A V E R A G E S   O V E R    1000 S T E P S

 NSTEP =     1000   TIME(PS) =     202.000  TEMP(K) =   300.33  PRESS =  -766.2
 Etot   =    -28844.1807  EKtot   =      6813.5854  EPtot      =    -35657.7661
 BOND   =         1.3023  ANGLE   =         7.4882  DIHED      =         0.0000
 1-4 NB =         0.0000  1-4 EEL =         0.0000  VDWAALS    =      5244.3997
 EELEC  =    -40910.9562  EHBOND  =         0.0000  RESTRAINT  =         0.0000
 EKCMT  =      3408.2053  VIRIAL  =      5512.9566  VOLUME     =    127217.5499
                                                    Density    =         0.8956
 DV/DL  =       212.9853
 ------------------------------------------------------------------------------

      R M S  F L U C T U A T I O N S

 NSTEP =     1000   TIME(PS) =     202.000  TEMP(K) =     2.88  PRESS =   124.4
 Etot   =        92.4012  EKtot   =        65.3762  EPtot      =        72.5016
 BOND   =         0.7517  ANGLE   =         0.7504  DIHED      =         0.0000
 1-4 NB =         0.0000  1-4 EEL =         0.0000  VDWAALS    =        75.3786
 EELEC  =       120.2533  EHBOND  =         0.0000  RESTRAINT  =         0.0000
 EKCMT  =        37.5798  VIRIAL  =       342.4300  VOLUME     =       503.9338
                                                    Density    =         0.0035
 DV/DL  =        24.8287
 ------------------------------------------------------------------------------

      A V E R A G E S   O V E R    1000 S T E P S

 NSTEP =     1000   TIME(PS) =     202.000  TEMP(K) =   300.33  PRESS =  -766.2
 Etot   =    -28844.1807  EKtot   =      6813.5854  EPtot      =    -35657.7661
 BOND   =         1.3023  ANGLE   =         7.4882  DIHED      =         0.0000
 1-4 NB =         0.0000  1-4 EEL =         0.0000  VDWAALS    =      5244.3997
 EELEC  =    -40910.9562  EHBOND  =         0.0000  RESTRAINT  =         0.0000
 EKCMT  =      3408.2053  VIRIAL  =      5512.9566  VOLUME     =    127217.5499
                                                    Density    =         0.8956
 DV/DL  =       212.9853
 ------------------------------------------------------------------------------

      R M S  F L U C T U A T I O N S

 NSTEP =     1000   TIME(PS) =     202.000  TEMP(K) =     2.88  PRESS =   124.4
 Etot   =        92.4012  EKtot   =        65.3762  EPtot      =        72.5016
 BOND   =         0.7517  ANGLE   =         0.7504  DIHED      =         0.0000
 1-4 NB =         0.0000  1-4 EEL =         0.0000  VDWAALS    =        75.3786
 EELEC  =       120.2533  EHBOND  =         0.0000  RESTRAINT  =         0.0000
 EKCMT  =        37.5798  VIRIAL  =       342.4300  VOLUME     =       503.9338
                                                    Density    =         0.0035
 DV/DL  =        24.8287
 ------------------------------------------------------------------------------

      DV/DL, AVERAGES OVER    1000 STEPS

 NSTEP =     1000   TIME(PS) =     202.000  TEMP(K) =     2.88  PRESS =     0.0
 Etot   =         0.0000  EKtot   =         0.0000  EPtot      =       212.9853
 BOND   =         0.0000  ANGLE   =         0.0000  DIHED      =         0.0000
 1-4 NB =         0.0000  1-4 EEL =         0.0000  VDWAALS    =         0.0000
 EELEC  =       212.9853  EHBOND  =         0.0000  RESTRAINT  =         0.0000
 EKCMT  =         0.0000  VIRIAL  =         0.0000  VOLUME     =         0.0000
                                                    Density    =         0.0000
 DV/DL  =       212.9853
 ------------------------------------------------------------------------------

      A V E R A G E S   O V E R    1000 S T E P S

 NSTEP =     2000   TIME(PS) =     204.000  TEMP(K) =   301.00  PRESS =  -729.3
 Etot   =    -28839.3489  EKtot   =      6828.7287  EPtot      =    -35668.0776
 BOND   =         1.0497  ANGLE   =         7.5477  DIHED      =         0.0000
 1-4 NB =         0.0000  1-4 EEL =         0.0000  VDWAALS    =      5199.7628
 EELEC  =    -40876.4378  EHBOND  =         0.0000  RESTRAINT  =         0.0000
 EKCMT  =      3427.5124  VIRIAL  =      5404.4339  VOLUME     =    125518.0635
                                                    Density    =         0.9077
 DV/DL  =       219.5627
 ------------------------------------------------------------------------------

      R M S  F L U C T U A T I O N S

 NSTEP =     2000   TIME(PS) =     204.000  TEMP(K) =     2.18  PRESS =   184.0
 Etot   =        46.6033  EKtot   =        49.5287  EPtot      =        58.8970
 BOND   =         0.7360  ANGLE   =         0.7559  DIHED      =         0.0000
 1-4 NB =         0.0000  1-4 EEL =         0.0000  VDWAALS    =        99.2500
 EELEC  =       119.4346  EHBOND  =         0.0000  RESTRAINT  =         0.0000
 EKCMT  =        44.0597  VIRIAL  =       491.3218  VOLUME     =       487.6551
                                                    Density    =         0.0035
 DV/DL  =        21.6728
 ------------------------------------------------------------------------------

      A V E R A G E S   O V E R    1000 S T E P S

 NSTEP =     2000   TIME(PS) =     204.000  TEMP(K) =   301.00  PRESS =  -729.3
 Etot   =    -28839.3489  EKtot   =      6828.7287  EPtot      =    -35668.0776
 BOND   =         1.0497  ANGLE   =         7.5477  DIHED      =         0.0000
 1-4 NB =         0.0000  1-4 EEL =         0.0000  VDWAALS    =      5199.7628
 EELEC  =    -40876.4378  EHBOND  =         0.0000  RESTRAINT  =         0.0000
 EKCMT  =      3427.5124  VIRIAL  =      5404.4339  VOLUME     =    125518.0635
                                                    Density    =         0.9077
 DV/DL  =       219.5627
 ------------------------------------------------------------------------------

      R M S  F L U C T U A T I O N S

 NSTEP =     2000   TIME(PS) =     204.000  TEMP(K) =     2.18  PRESS =   184.0
 Etot   =        46.6033  EKtot   =        49.5287  EPtot      =        58.8970
 BOND   =         0.7360  ANGLE   =         0.7559  DIHED      =         0.0000
 1-4 NB =         0.0000  1-4 EEL =         0.0000  VDWAALS    =        99.2500
 EELEC  =       119.4346  EHBOND  =         0.0000  RESTRAINT  =         0.0000
 EKCMT  =        44.0597  VIRIAL  =       491.3218  VOLUME     =       487.6551
                                                    Density    =         0.0035
 DV/DL  =        21.6728
 ------------------------------------------------------------------------------

      DV/DL, AVERAGES OVER    1000 STEPS

 NSTEP =     2000   TIME(PS) =     204.000  TEMP(K) =     2.18  PRESS =     0.0
 Etot   =         0.0000  EKtot   =         0.0000  EPtot      =       219.5627
 BOND   =         0.0000  ANGLE   =         0.0000  DIHED      =         0.0000
 1-4 NB =         0.0000  1-4 EEL =         0.0000  VDWAALS    =         0.0000
 EELEC  =       219.5627  EHBOND  =         0.0000  RESTRAINT  =         0.0000
 EKCMT  =         0.0000  VIRIAL  =         0.0000  VOLUME     =         0.0000
                                                    Density    =         0.0000
 DV/DL  =       219.5627
 ------------------------------------------------------------------------------

      A V E R A G E S   O V E R    1000 S T E P S

 NSTEP =   500000   TIME(PS) =    1200.000  TEMP(K) =   298.84  PRESS =    -0.9
 Etot   =    -29582.1370  EKtot   =      6779.6158  EPtot      =    -36361.7528
 BOND   =         0.9978  ANGLE   =         7.8591  DIHED      =         0.0000
 1-4 NB =         0.0000  1-4 EEL =         0.0000  VDWAALS    =      5443.0599
 EELEC  =    -41813.6695  EHBOND  =         0.0000  RESTRAINT  =         0.0000
 EKCMT  =      3396.0628  VIRIAL  =      3398.4283  VOLUME     =    115770.2519
                                                    Density    =         0.9841
 DV/DL  =       235.3691
 ------------------------------------------------------------------------------

      R M S  F L U C T U A T I O N S

 NSTEP =   500000   TIME(PS) =    1200.000  TEMP(K) =     2.29  PRESS =   148.9
 Etot   =        71.8059  EKtot   =        51.9171  EPtot      =        66.0637
 BOND   =         0.7168  ANGLE   =         1.0169  DIHED      =         0.0000
 1-4 NB =         0.0000  1-4 EEL =         0.0000  VDWAALS    =        77.7439
 EELEC  =       111.8409  EHBOND  =         0.0000  RESTRAINT  =         0.0000
 EKCMT  =        37.6648  VIRIAL  =       366.4705  VOLUME     =        14.1357
                                                    Density    =         0.0001
 DV/DL  =        22.8270
 ------------------------------------------------------------------------------

      A V E R A G E S   O V E R    1000 S T E P S

 NSTEP =   500000   TIME(PS) =    1200.000  TEMP(K) =   298.84  PRESS =    -0.9
 Etot   =    -29582.1370  EKtot   =      6779.6158  EPtot      =    -36361.7528
 BOND   =         0.9978  ANGLE   =         7.8591  DIHED      =         0.0000
 1-4 NB =         0.0000  1-4 EEL =         0.0000  VDWAALS    =      5443.0599
 EELEC  =    -41813.6695  EHBOND  =         0.0000  RESTRAINT  =         0.0000
 EKCMT  =      3396.0628  VIRIAL  =      3398.4283  VOLUME     =    115770.2519
                                                    Density    =         0.9841
 DV/DL  =       235.3691
 ------------------------------------------------------------------------------

      R M S  F L U C T U A T I O N S

 NSTEP =   500000   TIME(PS) =    1200.000  TEMP(K) =     2.29  PRESS =   148.9
 Etot   =        71.8059  EKtot   =        51.9171  EPtot      =        66.0637
 BOND   =         0.7168  ANGLE   =         1.0169  DIHED      =         0.0000
 1-4 NB =         0.0000  1-4 EEL =         0.0000  VDWAALS    =        77.7439
 EELEC  =       111.8409  EHBOND  =         0.0000  RESTRAINT  =         0.0000
 EKCMT  =        37.6648  VIRIAL  =       366.4705  VOLUME     =        14.1357
                                                    Density    =         0.0001
 DV/DL  =        22.8270
 ------------------------------------------------------------------------------

      DV/DL, AVERAGES OVER    1000 STEPS

 NSTEP =   500000   TIME(PS) =    1200.000  TEMP(K) =     2.29  PRESS =     0.0
 Etot   =         0.0000  EKtot   =         0.0000  EPtot      =       235.3691
 BOND   =         0.0000  ANGLE   =         0.0000  DIHED      =         0.0000
 1-4 NB =         0.0000  1-4 EEL =         0.0000  VDWAALS    =         0.0000
 EELEC  =       235.3691  EHBOND  =         0.0000  RESTRAINT  =         0.0000
 EKCMT  =         0.0000  VIRIAL  =         0.0000  VOLUME     =         0.0000
                                                    Density    =         0.0000
 DV/DL  =       235.3691
 ------------------------------------------------------------------------------

      A V E R A G E S   O V E R  500000 S T E P S

 NSTEP =   500000   TIME(PS) =    1200.000  TEMP(K) =   300.26  PRESS =   -10.3
 Etot   =    -29458.2334  EKtot   =      6811.8629  EPtot      =    -36270.0963
 BOND   =         1.2186  ANGLE   =         7.7195  DIHED      =         0.0000
 1-4 NB =         0.0000  1-4 EEL =         0.0000  VDWAALS    =      5417.5040
 EELEC  =    -41696.5384  EHBOND  =         0.0000  RESTRAINT  =         0.0000
 EKCMT  =      3417.9957  VIRIAL  =      3445.3418  VOLUME     =    116050.4685
                                                    Density    =         0.9818
 DV/DL  =       223.5492
 ------------------------------------------------------------------------------

      R M S  F L U C T U A T I O N S

 NSTEP =   500000   TIME(PS) =    1200.000  TEMP(K) =     2.82  PRESS =   189.9
 Etot   =       122.5547  EKtot   =        63.8983  EPtot      =       103.5949
 BOND   =         0.8538  ANGLE   =         0.9308  DIHED      =         0.0000
 1-4 NB =         0.0000  1-4 EEL =         0.0000  VDWAALS    =        94.2214
 EELEC  =       160.5000  EHBOND  =         0.0000  RESTRAINT  =         0.0000
 EKCMT  =        45.2605  VIRIAL  =       479.3042  VOLUME     =       927.6048
                                                    Density    =         0.0073
 DV/DL  =        25.1818
 ------------------------------------------------------------------------------

      A V E R A G E S   O V E R  500000 S T E P S

 NSTEP =   500000   TIME(PS) =    1200.000  TEMP(K) =   300.26  PRESS =   -10.3
 Etot   =    -29458.2334  EKtot   =      6811.8629  EPtot      =    -36270.0963
 BOND   =         1.2186  ANGLE   =         7.7195  DIHED      =         0.0000
 1-4 NB =         0.0000  1-4 EEL =         0.0000  VDWAALS    =      5417.5040
 EELEC  =    -41696.5384  EHBOND  =         0.0000  RESTRAINT  =         0.0000
 EKCMT  =      3417.9957  VIRIAL  =      3445.3418  VOLUME     =    116050.4685
                                                    Density    =         0.9818
 DV/DL  =       223.5492
 ------------------------------------------------------------------------------

      R M S  F L U C T U A T I O N S

 NSTEP =   500000   TIME(PS) =    1200.000  TEMP(K) =     2.82  PRESS =   189.9
 Etot   =       122.5547  EKtot   =        63.8983  EPtot      =       103.5949
 BOND   =         0.8538  ANGLE   =         0.9308  DIHED      =         0.0000
 1-4 NB =         0.0000  1-4 EEL =         0.0000  VDWAALS    =        94.2214
 EELEC  =       160.5000  EHBOND  =         0.0000  RESTRAINT  =         0.0000
 EKCMT  =        45.2605  VIRIAL  =       479.3042  VOLUME     =       927.6048
                                                    Density    =         0.0073
 DV/DL  =        25.1818
 ------------------------------------------------------------------------------

      DV/DL, AVERAGES OVER  500000 STEPS

 NSTEP =   500000   TIME(PS) =    1200.000  TEMP(K) =     2.82  PRESS =     0.0
 Etot   =         0.0000  EKtot   =         0.0000  EPtot      =       223.5492
 BOND   =         0.0000  ANGLE   =         0.0000  DIHED      =         0.0000
 1-4 NB =         0.0000  1-4 EEL =         0.0000  VDWAALS    =         0.0000
 EELEC  =       223.5492  EHBOND  =         0.0000  RESTRAINT  =         0.0000
 EKCMT  =         0.0000  VIRIAL  =         0.0000  VOLUME     =         0.0000
                                                    Density    =         0.0000
 DV/DL  =       223.5492
 ------------------------------------------------------------------------------
