-------------------------------------------------------
          Amber 20 PMEMD                              2020
          -------------------------------------------------------

  [-O]verwriting output

File Assignments:

 Here is the input file:

 &cntrl
   nstlim=1000000, nscm=1000,
   ntx=1, irest=0, ntpr=1000,
   tempi=300.0, temp0=300.0, ntt=3, gamma_ln=2.0,
   ntb=1, igb=0, cut=10.0,
   dt=0.001, ig=-1,
   ntc=1, ntf=1,
   iwrap=0,
   ntwr=1000, ntwx=50000, ntave=1000,
   ioutfm=1, ntwv=-1,
   ifsc = 0, icfe=1,
   clambda=0.68392,
   timask1=':1',
   timask2=':2', crgmask = ':2',
/

Note: ig = -1. Setting random seed to   735658 based on wallclock time in
      microseconds.

--------------------------------------------------------------------------------
   1.  RESOURCE   USE:
--------------------------------------------------------------------------------

 getting box info from netcdf restart file
 NATOM  =      10 NTYPES =       4 NBONH =       0 MBONA  =       8
 NTHETH =       0 MTHETA =      12 NPHIH =       0 MPHIA  =       0
 NHPARM =       0 NPARM  =       0 NNB   =      22 NRES   =       2
 NBONA  =       8 NTHETA =      12 NPHIA =       0 NUMBND =       1
 NUMANG =       1 NPTRA  =       0 NATYP =       4 NPHB   =       1
 IFBOX  =       2 NMXRS  =       5 IFCAP =       0 NEXTRA =       0
 NCOPY  =       0

     BOX TYPE: TRUNCATED OCTAHEDRON

--------------------------------------------------------------------------------
   2.  CONTROL  DATA  FOR  THE  RUN
--------------------------------------------------------------------------------

default_name

General flags:
     imin    =       0, nmropt  =       0

Nature and format of input:
     ntx     =       1, irest   =       0, ntrx    =       1

Nature and format of output:
     ntxo    =       2, ntpr    =    1000, ntrx    =       1, ntwr    =    1000
     iwrap   =       0, ntwx    =   50000, ntwv    =      -1, ntwe    =       0
     ioutfm  =       1, ntwprt  =       0, idecomp =       0, rbornstat=      0

Potential function:
     ntf     =       1, ntb     =       1, igb     =       0, nsnb    =      25
     ipol    =       0, gbsa    =       0, iesp    =       0
     dielc   =   1.00000, cut     =  10.00000, intdiel =   1.00000

Frozen or restrained atoms:
     ibelly  =       0, ntr     =       0

Molecular dynamics:
     nstlim  =   1000000, nscm    =      1000, nrespa  =         1
     t       =   0.00000, dt      =   0.00100, vlimit  =  -1.00000

Langevin dynamics temperature regulation:
     ig      =  735658
     temp0   = 300.00000, tempi   = 300.00000, gamma_ln=   2.00000

Free energy options:
     icfe    =       1, ifsc    =       0, klambda =       1
     clambda =  0.6839, scalpha =  0.5000, scbeta  = 12.0000
     sceeorder =       2
     dynlmb =  0.0000 logdvdl =       0

Ewald parameters:
     verbose =       0, ew_type =       0, nbflag  =       1, use_pme =       1
     vdwmeth =       1, eedmeth =       1, netfrc  =       1
     Box X =   55.004   Box Y =   55.004   Box Z =   55.004
     Alpha =  109.471   Beta  =  109.471   Gamma =  109.471
     NFFT1 =   56       NFFT2 =   56       NFFT3 =   56
     Cutoff=   10.000   Tol   =0.100E-04
     Ewald Coefficient =  0.27511
     Interpolation order =    4
     TI Mask 1 :1; matches      5 atoms
     TI Mask 2 :2; matches      5 atoms
     TI region 1:       5 atoms
     TI region 2:       5 atoms
Removing charge of       1.4352 from atom       6
Removing charge of      -1.1088 from atom       7
Removing charge of      -1.1088 from atom       8
Removing charge of      -1.1088 from atom       9
Removing charge of      -1.1088 from atom      10
Total charge of  -2.99999999 removed from       5 atoms
     Checking for mismatched coordinates.

--------------------------------------------------------------------------------
   3.  ATOMIC COORDINATES AND VELOCITIES
--------------------------------------------------------------------------------

default_name
 begin time read from input coords =     0.000 ps

 Number of triangulated 3-point waters found:        0

     Sum of charges for TI region  1 =  -2.99999999
     Skip neutralizing charges...

     Sum of charges for TI region  2 =   0.00000000
     Skip neutralizing charges...

--------------------------------------------------------------------------------
   4.  RESULTS
 NSTEP =        0   TIME(PS) =       0.000  TEMP(K) =   464.23  PRESS =     0.0
 Etot   =       -13.8392  EKtot   =         6.9188  EPtot      =       -20.7580
 BOND   =         0.0000  ANGLE   =         6.2592  DIHED      =         0.0000
 1-4 NB =         0.0000  1-4 EEL =         0.0000  VDWAALS    =        -0.0003
 EELEC  =       -27.0169  EHBOND  =         0.0000  RESTRAINT  =         0.0000
 DV/DL  =        85.4749
 ------------------------------------------------------------------------------

      A V E R A G E S   O V E R    1000 S T E P S

 NSTEP =     1000   TIME(PS) =       1.000  TEMP(K) =   251.48  PRESS =     0.0
 Etot   =       -14.9959  EKtot   =         3.7480  EPtot      =       -18.7440
 BOND   =         1.4619  ANGLE   =         6.8043  DIHED      =         0.0000
 1-4 NB =         0.0000  1-4 EEL =         0.0000  VDWAALS    =        -0.0003
 EELEC  =       -27.0099  EHBOND  =         0.0000  RESTRAINT  =         0.0000
 DV/DL  =        85.4524
 ------------------------------------------------------------------------------

      R M S  F L U C T U A T I O N S

 NSTEP =     1000   TIME(PS) =       1.000  TEMP(K) =    89.32  PRESS =     0.0
 Etot   =         1.3167  EKtot   =         1.3312  EPtot      =         0.9666
 BOND   =         0.9375  ANGLE   =         0.3542  DIHED      =         0.0000
 1-4 NB =         0.0000  1-4 EEL =         0.0000  VDWAALS    =         0.0000
 EELEC  =         0.0042  EHBOND  =         0.0000  RESTRAINT  =         0.0000
 DV/DL  =         0.0268
 ------------------------------------------------------------------------------

      A V E R A G E S   O V E R    1000 S T E P S

 NSTEP =     1000   TIME(PS) =       1.000  TEMP(K) =   251.48  PRESS =     0.0
 Etot   =       -14.9959  EKtot   =         3.7480  EPtot      =       -18.7440
 BOND   =         1.4619  ANGLE   =         6.8043  DIHED      =         0.0000
 1-4 NB =         0.0000  1-4 EEL =         0.0000  VDWAALS    =        -0.0003
 EELEC  =       -27.0099  EHBOND  =         0.0000  RESTRAINT  =         0.0000
 DV/DL  =        85.4524
 ------------------------------------------------------------------------------

      R M S  F L U C T U A T I O N S

 NSTEP =     1000   TIME(PS) =       1.000  TEMP(K) =    89.17  PRESS =     0.0
 Etot   =         1.3148  EKtot   =         1.3289  EPtot      =         0.9666
 BOND   =         0.9375  ANGLE   =         0.3542  DIHED      =         0.0000
 1-4 NB =         0.0000  1-4 EEL =         0.0000  VDWAALS    =         0.0000
 EELEC  =         0.0042  EHBOND  =         0.0000  RESTRAINT  =         0.0000
 DV/DL  =         0.0268
 ------------------------------------------------------------------------------

      DV/DL, AVERAGES OVER    1000 STEPS

 NSTEP =     1000   TIME(PS) =       1.000  TEMP(K) =    89.17  PRESS =     0.0
 Etot   =         0.0000  EKtot   =         0.0000  EPtot      =        85.4524
 BOND   =        -0.0006  ANGLE   =         0.0002  DIHED      =         0.0000
 1-4 NB =         0.0000  1-4 EEL =         0.0000  VDWAALS    =         0.0000
 EELEC  =        85.4527  EHBOND  =         0.0000  RESTRAINT  =         0.0000
 DV/DL  =        85.4524
 ------------------------------------------------------------------------------

      A V E R A G E S   O V E R    1000 S T E P S

 NSTEP =     2000   TIME(PS) =       2.000  TEMP(K) =   309.07  PRESS =     0.0
 Etot   =       -13.1287  EKtot   =         4.6064  EPtot      =       -17.7351
 BOND   =         1.6639  ANGLE   =         7.6124  DIHED      =         0.0000
 1-4 NB =         0.0000  1-4 EEL =         0.0000  VDWAALS    =        -0.0003
 EELEC  =       -27.0111  EHBOND  =         0.0000  RESTRAINT  =         0.0000
 DV/DL  =        85.4567
 ------------------------------------------------------------------------------

      R M S  F L U C T U A T I O N S

 NSTEP =     2000   TIME(PS) =       2.000  TEMP(K) =    95.18  PRESS =     0.0
 Etot   =         1.5862  EKtot   =         1.4186  EPtot      =         1.1712
 BOND   =         0.8965  ANGLE   =         0.8319  DIHED      =         0.0000
 1-4 NB =         0.0000  1-4 EEL =         0.0000  VDWAALS    =         0.0000
 EELEC  =         0.0038  EHBOND  =         0.0000  RESTRAINT  =         0.0000
 DV/DL  =         0.0291
 ------------------------------------------------------------------------------

      A V E R A G E S   O V E R    1000 S T E P S

 NSTEP =     2000   TIME(PS) =       2.000  TEMP(K) =   309.13  PRESS =     0.0
 Etot   =       -13.1278  EKtot   =         4.6073  EPtot      =       -17.7351
 BOND   =         1.6639  ANGLE   =         7.6124  DIHED      =         0.0000
 1-4 NB =         0.0000  1-4 EEL =         0.0000  VDWAALS    =        -0.0003
 EELEC  =       -27.0111  EHBOND  =         0.0000  RESTRAINT  =         0.0000
 DV/DL  =        85.4567
 ------------------------------------------------------------------------------

      R M S  F L U C T U A T I O N S

 NSTEP =     2000   TIME(PS) =       2.000  TEMP(K) =    95.16  PRESS =     0.0
 Etot   =         1.5855  EKtot   =         1.4182  EPtot      =         1.1712
 BOND   =         0.8965  ANGLE   =         0.8319  DIHED      =         0.0000
 1-4 NB =         0.0000  1-4 EEL =         0.0000  VDWAALS    =         0.0000
 EELEC  =         0.0038  EHBOND  =         0.0000  RESTRAINT  =         0.0000
 DV/DL  =         0.0291
 ------------------------------------------------------------------------------

      DV/DL, AVERAGES OVER    1000 STEPS

 NSTEP =     2000   TIME(PS) =       2.000  TEMP(K) =    95.16  PRESS =     0.0
 Etot   =         0.0000  EKtot   =         0.0000  EPtot      =        85.4567
 BOND   =        -0.0002  ANGLE   =         0.0003  DIHED      =         0.0000
 1-4 NB =         0.0000  1-4 EEL =         0.0000  VDWAALS    =         0.0000
 EELEC  =        85.4565  EHBOND  =         0.0000  RESTRAINT  =         0.0000
 DV/DL  =        85.4567
 ------------------------------------------------------------------------------

      A V E R A G E S   O V E R    1000 S T E P S

 NSTEP =  1000000   TIME(PS) =    1000.000  TEMP(K) =   376.41  PRESS =     0.0
 Etot   =       -11.3002  EKtot   =         5.6100  EPtot      =       -16.9102
 BOND   =         2.0044  ANGLE   =         8.0969  DIHED      =         0.0000
 1-4 NB =         0.0000  1-4 EEL =         0.0000  VDWAALS    =        -0.0003
 EELEC  =       -27.0112  EHBOND  =         0.0000  RESTRAINT  =         0.0000
 DV/DL  =        85.4568
 ------------------------------------------------------------------------------

      R M S  F L U C T U A T I O N S

 NSTEP =  1000000   TIME(PS) =    1000.000  TEMP(K) =   111.72  PRESS =     0.0
 Etot   =         2.0774  EKtot   =         1.6651  EPtot      =         1.5714
 BOND   =         1.4859  ANGLE   =         0.8602  DIHED      =         0.0000
 1-4 NB =         0.0000  1-4 EEL =         0.0000  VDWAALS    =         0.0000
 EELEC  =         0.0022  EHBOND  =         0.0000  RESTRAINT  =         0.0000
 DV/DL  =         0.0326
 ------------------------------------------------------------------------------

      A V E R A G E S   O V E R    1000 S T E P S

 NSTEP =  1000000   TIME(PS) =    1000.000  TEMP(K) =   376.15  PRESS =     0.0
 Etot   =       -11.3041  EKtot   =         5.6062  EPtot      =       -16.9102
 BOND   =         2.0044  ANGLE   =         8.0969  DIHED      =         0.0000
 1-4 NB =         0.0000  1-4 EEL =         0.0000  VDWAALS    =        -0.0003
 EELEC  =       -27.0112  EHBOND  =         0.0000  RESTRAINT  =         0.0000
 DV/DL  =        85.4568
 ------------------------------------------------------------------------------

      R M S  F L U C T U A T I O N S

 NSTEP =  1000000   TIME(PS) =    1000.000  TEMP(K) =   111.66  PRESS =     0.0
 Etot   =         2.0781  EKtot   =         1.6642  EPtot      =         1.5714
 BOND   =         1.4859  ANGLE   =         0.8602  DIHED      =         0.0000
 1-4 NB =         0.0000  1-4 EEL =         0.0000  VDWAALS    =         0.0000
 EELEC  =         0.0022  EHBOND  =         0.0000  RESTRAINT  =         0.0000
 DV/DL  =         0.0326
 ------------------------------------------------------------------------------

      DV/DL, AVERAGES OVER    1000 STEPS

 NSTEP =  1000000   TIME(PS) =    1000.000  TEMP(K) =   111.66  PRESS =     0.0
 Etot   =         0.0000  EKtot   =         0.0000  EPtot      =        85.4568
 BOND   =        -0.0003  ANGLE   =         0.0003  DIHED      =         0.0000
 1-4 NB =         0.0000  1-4 EEL =         0.0000  VDWAALS    =         0.0000
 EELEC  =        85.4568  EHBOND  =         0.0000  RESTRAINT  =         0.0000
 DV/DL  =        85.4568
 ------------------------------------------------------------------------------

      A V E R A G E S   O V E R 1000000 S T E P S

 NSTEP =  1000000   TIME(PS) =    1000.000  TEMP(K) =   303.62  PRESS =     0.0
 Etot   =       -13.4295  EKtot   =         4.5252  EPtot      =       -17.9547
 BOND   =         1.3002  ANGLE   =         7.7572  DIHED      =         0.0000
 1-4 NB =         0.0000  1-4 EEL =         0.0000  VDWAALS    =        -0.0003
 EELEC  =       -27.0118  EHBOND  =         0.0000  RESTRAINT  =         0.0000
 DV/DL  =        85.4587
 ------------------------------------------------------------------------------

      R M S  F L U C T U A T I O N S

 NSTEP =  1000000   TIME(PS) =    1000.000  TEMP(K) =   108.36  PRESS =     0.0
 Etot   =         2.0541  EKtot   =         1.6150  EPtot      =         1.3085
 BOND   =         0.9143  ANGLE   =         0.9444  DIHED      =         0.0000
 1-4 NB =         0.0000  1-4 EEL =         0.0000  VDWAALS    =         0.0000
 EELEC  =         0.0035  EHBOND  =         0.0000  RESTRAINT  =         0.0000
 DV/DL  =         0.0278
 ------------------------------------------------------------------------------

      A V E R A G E S   O V E R 1000000 S T E P S

 NSTEP =  1000000   TIME(PS) =    1000.000  TEMP(K) =   303.63  PRESS =     0.0
 Etot   =       -13.4293  EKtot   =         4.5253  EPtot      =       -17.9547
 BOND   =         1.3002  ANGLE   =         7.7572  DIHED      =         0.0000
 1-4 NB =         0.0000  1-4 EEL =         0.0000  VDWAALS    =        -0.0003
 EELEC  =       -27.0118  EHBOND  =         0.0000  RESTRAINT  =         0.0000
 DV/DL  =        85.4587
 ------------------------------------------------------------------------------

      R M S  F L U C T U A T I O N S

 NSTEP =  1000000   TIME(PS) =    1000.000  TEMP(K) =   108.37  PRESS =     0.0
 Etot   =         2.0544  EKtot   =         1.6151  EPtot      =         1.3085
 BOND   =         0.9143  ANGLE   =         0.9444  DIHED      =         0.0000
 1-4 NB =         0.0000  1-4 EEL =         0.0000  VDWAALS    =         0.0000
 EELEC  =         0.0035  EHBOND  =         0.0000  RESTRAINT  =         0.0000
 DV/DL  =         0.0278
 ------------------------------------------------------------------------------

      DV/DL, AVERAGES OVER 1000000 STEPS

 NSTEP =  1000000   TIME(PS) =    1000.000  TEMP(K) =   108.37  PRESS =     0.0
 Etot   =         0.0000  EKtot   =         0.0000  EPtot      =        85.4587
 BOND   =         0.0000  ANGLE   =        -0.0000  DIHED      =         0.0000
 1-4 NB =         0.0000  1-4 EEL =         0.0000  VDWAALS    =         0.0000
 EELEC  =        85.4586  EHBOND  =         0.0000  RESTRAINT  =         0.0000
 DV/DL  =        85.4587
 ------------------------------------------------------------------------------
