-------------------------------------------------------
          Amber 20 PMEMD                              2020
          -------------------------------------------------------

  [-O]verwriting output

File Assignments:

 Here is the input file:

 &cntrl
   nstlim=500000, nscm=1000,
   ntx=5, irest=1, ntpr=1000,
   tempi=300.0, temp0=300.0, ntt=3, gamma_ln=2.0,
   ntp=1, pres0=1.01325, taup=5.0,
   ntb=2, igb=0, cut=10.0,
   dt=0.002, ig=-1,
   ntc=2, ntf=2,
   iwrap=0,
   ntwr=1000, ntwx=50000, ntave=1000,
   ioutfm=1, ntwv=-1,
   ifsc = 0, icfe=1,
   clambda=0.79366,
   timask1=':1',
   timask2=':2', crgmask = ':2',
/

Note: ig = -1. Setting random seed to   579784 based on wallclock time in
      microseconds.

--------------------------------------------------------------------------------
   1.  RESOURCE   USE:
--------------------------------------------------------------------------------

 getting box info from netcdf restart file
 NATOM  =   11419 NTYPES =       4 NBONH =   11409 MBONA  =       8
 NTHETH =       0 MTHETA =      12 NPHIH =       0 MPHIA  =       0
 NHPARM =       0 NPARM  =       0 NNB   =   15234 NRES   =    3805
 NBONA  =       8 NTHETA =      12 NPHIA =       0 NUMBND =       3
 NUMANG =       1 NPTRA  =       0 NATYP =       4 NPHB   =       1
 IFBOX  =       2 NMXRS  =       5 IFCAP =       0 NEXTRA =       0
 NCOPY  =       0

     BOX TYPE: TRUNCATED OCTAHEDRON

--------------------------------------------------------------------------------
   2.  CONTROL  DATA  FOR  THE  RUN
--------------------------------------------------------------------------------

default_name

General flags:
     imin    =       0, nmropt  =       0

Nature and format of input:
     ntx     =       5, irest   =       1, ntrx    =       1

Nature and format of output:
     ntxo    =       2, ntpr    =    1000, ntrx    =       1, ntwr    =    1000
     iwrap   =       0, ntwx    =   50000, ntwv    =      -1, ntwe    =       0
     ioutfm  =       1, ntwprt  =       0, idecomp =       0, rbornstat=      0

Potential function:
     ntf     =       2, ntb     =       2, igb     =       0, nsnb    =      25
     ipol    =       0, gbsa    =       0, iesp    =       0
     dielc   =   1.00000, cut     =  10.00000, intdiel =   1.00000

Frozen or restrained atoms:
     ibelly  =       0, ntr     =       0

Molecular dynamics:
     nstlim  =    500000, nscm    =      1000, nrespa  =         1
     t       =   0.00000, dt      =   0.00200, vlimit  =  -1.00000

Langevin dynamics temperature regulation:
     ig      =  579784
     temp0   = 300.00000, tempi   = 300.00000, gamma_ln=   2.00000

Pressure regulation:
     ntp     =       1
     pres0   =   1.01325, comp    =  44.60000, taup    =   5.00000

SHAKE:
     ntc     =       2, jfastw  =       0
     tol     =   0.00001

Free energy options:
     icfe    =       1, ifsc    =       0, klambda =       1
     clambda =  0.7937, scalpha =  0.5000, scbeta  = 12.0000
     sceeorder =       2
     dynlmb =  0.0000 logdvdl =       0

Ewald parameters:
     verbose =       0, ew_type =       0, nbflag  =       1, use_pme =       1
     vdwmeth =       1, eedmeth =       1, netfrc  =       1
     Box X =   55.004   Box Y =   55.004   Box Z =   55.004
     Alpha =  109.471   Beta  =  109.471   Gamma =  109.471
     NFFT1 =   56       NFFT2 =   56       NFFT3 =   56
     Cutoff=   10.000   Tol   =0.100E-04
     Ewald Coefficient =  0.27511
     Interpolation order =    4
     TI Mask 1 :1; matches      5 atoms
     TI Mask 2 :2; matches      5 atoms
     TI region 1:   11414 atoms
     TI region 2:   11414 atoms
Removing charge of       1.4352 from atom       6
Removing charge of      -1.1088 from atom       7
Removing charge of      -1.1088 from atom       8
Removing charge of      -1.1088 from atom       9
Removing charge of      -1.1088 from atom      10
Total charge of  -2.99999999 removed from       5 atoms
     Checking for mismatched coordinates.

--------------------------------------------------------------------------------
   3.  ATOMIC COORDINATES AND VELOCITIES
--------------------------------------------------------------------------------

default_name
 begin time read from input coords =   200.000 ps

 Number of triangulated 3-point waters found:     3803

     Sum of charges for TI region  1 =  -2.99999999
     Skip neutralizing charges...

     Sum of charges for TI region  2 =   0.00000000
     Skip neutralizing charges...

--------------------------------------------------------------------------------
   4.  RESULTS
 NSTEP =     1000   TIME(PS) =     202.000  TEMP(K) =   303.16  PRESS =  -813.4
 Etot   =    -28904.5915  EKtot   =      6877.7851  EPtot      =    -35782.3766
 BOND   =         0.7175  ANGLE   =         9.9021  DIHED      =         0.0000
 1-4 NB =         0.0000  1-4 EEL =         0.0000  VDWAALS    =      5194.0884
 EELEC  =    -40987.0846  EHBOND  =         0.0000  RESTRAINT  =         0.0000
 EKCMT  =      3477.1575  VIRIAL  =      5699.2711  VOLUME     =    126529.5437
                                                    Density    =         0.9004
 DV/DL  =       304.9012
 ------------------------------------------------------------------------------

      A V E R A G E S   O V E R    1000 S T E P S

 NSTEP =     1000   TIME(PS) =     202.000  TEMP(K) =   301.46  PRESS =  -692.5
 Etot   =    -28841.3940  EKtot   =      6839.1304  EPtot      =    -35680.5243
 BOND   =         1.3950  ANGLE   =         7.8815  DIHED      =         0.0000
 1-4 NB =         0.0000  1-4 EEL =         0.0000  VDWAALS    =      5249.7307
 EELEC  =    -40939.5316  EHBOND  =         0.0000  RESTRAINT  =         0.0000
 EKCMT  =      3414.9419  VIRIAL  =      5318.5876  VOLUME     =    127268.2723
                                                    Density    =         0.8952
 DV/DL  =       322.5046
 ------------------------------------------------------------------------------

      R M S  F L U C T U A T I O N S

 NSTEP =     1000   TIME(PS) =     202.000  TEMP(K) =     2.25  PRESS =   152.5
 Etot   =        44.0255  EKtot   =        51.0161  EPtot      =        60.9259
 BOND   =         0.7834  ANGLE   =         0.8841  DIHED      =         0.0000
 1-4 NB =         0.0000  1-4 EEL =         0.0000  VDWAALS    =        75.8905
 EELEC  =       102.9032  EHBOND  =         0.0000  RESTRAINT  =         0.0000
 EKCMT  =        36.5046  VIRIAL  =       423.7319  VOLUME     =       461.6822
                                                    Density    =         0.0032
 DV/DL  =        26.1042
 ------------------------------------------------------------------------------

      A V E R A G E S   O V E R    1000 S T E P S

 NSTEP =     1000   TIME(PS) =     202.000  TEMP(K) =   301.46  PRESS =  -692.5
 Etot   =    -28841.3940  EKtot   =      6839.1304  EPtot      =    -35680.5243
 BOND   =         1.3950  ANGLE   =         7.8815  DIHED      =         0.0000
 1-4 NB =         0.0000  1-4 EEL =         0.0000  VDWAALS    =      5249.7307
 EELEC  =    -40939.5316  EHBOND  =         0.0000  RESTRAINT  =         0.0000
 EKCMT  =      3414.9419  VIRIAL  =      5318.5876  VOLUME     =    127268.2723
                                                    Density    =         0.8952
 DV/DL  =       322.5046
 ------------------------------------------------------------------------------

      R M S  F L U C T U A T I O N S

 NSTEP =     1000   TIME(PS) =     202.000  TEMP(K) =     2.25  PRESS =   152.5
 Etot   =        44.0255  EKtot   =        51.0161  EPtot      =        60.9259
 BOND   =         0.7834  ANGLE   =         0.8841  DIHED      =         0.0000
 1-4 NB =         0.0000  1-4 EEL =         0.0000  VDWAALS    =        75.8905
 EELEC  =       102.9032  EHBOND  =         0.0000  RESTRAINT  =         0.0000
 EKCMT  =        36.5046  VIRIAL  =       423.7319  VOLUME     =       461.6822
                                                    Density    =         0.0032
 DV/DL  =        26.1042
 ------------------------------------------------------------------------------

      DV/DL, AVERAGES OVER    1000 STEPS

 NSTEP =     1000   TIME(PS) =     202.000  TEMP(K) =     2.25  PRESS =     0.0
 Etot   =         0.0000  EKtot   =         0.0000  EPtot      =       322.5046
 BOND   =         0.0000  ANGLE   =         0.0000  DIHED      =         0.0000
 1-4 NB =         0.0000  1-4 EEL =         0.0000  VDWAALS    =         0.0000
 EELEC  =       322.5046  EHBOND  =         0.0000  RESTRAINT  =         0.0000
 EKCMT  =         0.0000  VIRIAL  =         0.0000  VOLUME     =         0.0000
                                                    Density    =         0.0000
 DV/DL  =       322.5046
 ------------------------------------------------------------------------------

      A V E R A G E S   O V E R    1000 S T E P S

 NSTEP =     2000   TIME(PS) =     204.000  TEMP(K) =   301.69  PRESS =  -618.0
 Etot   =    -28868.9775  EKtot   =      6844.3884  EPtot      =    -35713.3660
 BOND   =         0.7704  ANGLE   =         7.6073  DIHED      =         0.0000
 1-4 NB =         0.0000  1-4 EEL =         0.0000  VDWAALS    =      5240.9774
 EELEC  =    -40962.7211  EHBOND  =         0.0000  RESTRAINT  =         0.0000
 EKCMT  =      3451.0545  VIRIAL  =      5130.0464  VOLUME     =    125826.0740
                                                    Density    =         0.9055
 DV/DL  =       316.9342
 ------------------------------------------------------------------------------

      R M S  F L U C T U A T I O N S

 NSTEP =     2000   TIME(PS) =     204.000  TEMP(K) =     2.42  PRESS =   133.0
 Etot   =        44.1762  EKtot   =        54.8048  EPtot      =        50.3521
 BOND   =         0.4711  ANGLE   =         0.7445  DIHED      =         0.0000
 1-4 NB =         0.0000  1-4 EEL =         0.0000  VDWAALS    =        70.9345
 EELEC  =        80.3721  EHBOND  =         0.0000  RESTRAINT  =         0.0000
 EKCMT  =        42.0064  VIRIAL  =       370.4010  VOLUME     =       391.0324
                                                    Density    =         0.0028
 DV/DL  =        24.5669
 ------------------------------------------------------------------------------

      A V E R A G E S   O V E R    1000 S T E P S

 NSTEP =     2000   TIME(PS) =     204.000  TEMP(K) =   301.69  PRESS =  -618.0
 Etot   =    -28868.9775  EKtot   =      6844.3884  EPtot      =    -35713.3660
 BOND   =         0.7704  ANGLE   =         7.6073  DIHED      =         0.0000
 1-4 NB =         0.0000  1-4 EEL =         0.0000  VDWAALS    =      5240.9774
 EELEC  =    -40962.7211  EHBOND  =         0.0000  RESTRAINT  =         0.0000
 EKCMT  =      3451.0545  VIRIAL  =      5130.0464  VOLUME     =    125826.0740
                                                    Density    =         0.9055
 DV/DL  =       316.9342
 ------------------------------------------------------------------------------

      R M S  F L U C T U A T I O N S

 NSTEP =     2000   TIME(PS) =     204.000  TEMP(K) =     2.42  PRESS =   133.0
 Etot   =        44.1762  EKtot   =        54.8048  EPtot      =        50.3521
 BOND   =         0.4711  ANGLE   =         0.7445  DIHED      =         0.0000
 1-4 NB =         0.0000  1-4 EEL =         0.0000  VDWAALS    =        70.9345
 EELEC  =        80.3721  EHBOND  =         0.0000  RESTRAINT  =         0.0000
 EKCMT  =        42.0064  VIRIAL  =       370.4010  VOLUME     =       391.0324
                                                    Density    =         0.0028
 DV/DL  =        24.5669
 ------------------------------------------------------------------------------

      DV/DL, AVERAGES OVER    1000 STEPS

 NSTEP =     2000   TIME(PS) =     204.000  TEMP(K) =     2.42  PRESS =     0.0
 Etot   =         0.0000  EKtot   =         0.0000  EPtot      =       316.9342
 BOND   =         0.0000  ANGLE   =         0.0000  DIHED      =         0.0000
 1-4 NB =         0.0000  1-4 EEL =         0.0000  VDWAALS    =         0.0000
 EELEC  =       316.9342  EHBOND  =         0.0000  RESTRAINT  =         0.0000
 EKCMT  =         0.0000  VIRIAL  =         0.0000  VOLUME     =         0.0000
                                                    Density    =         0.0000
 DV/DL  =       316.9342
 ------------------------------------------------------------------------------

      A V E R A G E S   O V E R    1000 S T E P S

 NSTEP =   500000   TIME(PS) =    1200.000  TEMP(K) =   300.68  PRESS =    35.3
 Etot   =    -29448.0630  EKtot   =      6821.3978  EPtot      =    -36269.4608
 BOND   =         1.4074  ANGLE   =         7.4336  DIHED      =         0.0000
 1-4 NB =         0.0000  1-4 EEL =         0.0000  VDWAALS    =      5439.4240
 EELEC  =    -41717.7259  EHBOND  =         0.0000  RESTRAINT  =         0.0000
 EKCMT  =      3419.2826  VIRIAL  =      3330.9213  VOLUME     =    116061.5062
                                                    Density    =         0.9816
 DV/DL  =       319.7004
 ------------------------------------------------------------------------------

      R M S  F L U C T U A T I O N S

 NSTEP =   500000   TIME(PS) =    1200.000  TEMP(K) =     2.42  PRESS =   145.2
 Etot   =        52.8997  EKtot   =        54.9797  EPtot      =        54.6893
 BOND   =         1.0435  ANGLE   =         0.6305  DIHED      =         0.0000
 1-4 NB =         0.0000  1-4 EEL =         0.0000  VDWAALS    =        76.6350
 EELEC  =       100.7704  EHBOND  =         0.0000  RESTRAINT  =         0.0000
 EKCMT  =        40.8976  VIRIAL  =       368.6561  VOLUME     =        17.8501
                                                    Density    =         0.0002
 DV/DL  =        25.9183
 ------------------------------------------------------------------------------

      A V E R A G E S   O V E R    1000 S T E P S

 NSTEP =   500000   TIME(PS) =    1200.000  TEMP(K) =   300.68  PRESS =    35.3
 Etot   =    -29448.0630  EKtot   =      6821.3978  EPtot      =    -36269.4608
 BOND   =         1.4074  ANGLE   =         7.4336  DIHED      =         0.0000
 1-4 NB =         0.0000  1-4 EEL =         0.0000  VDWAALS    =      5439.4240
 EELEC  =    -41717.7259  EHBOND  =         0.0000  RESTRAINT  =         0.0000
 EKCMT  =      3419.2826  VIRIAL  =      3330.9213  VOLUME     =    116061.5062
                                                    Density    =         0.9816
 DV/DL  =       319.7004
 ------------------------------------------------------------------------------

      R M S  F L U C T U A T I O N S

 NSTEP =   500000   TIME(PS) =    1200.000  TEMP(K) =     2.42  PRESS =   145.2
 Etot   =        52.8997  EKtot   =        54.9797  EPtot      =        54.6893
 BOND   =         1.0435  ANGLE   =         0.6305  DIHED      =         0.0000
 1-4 NB =         0.0000  1-4 EEL =         0.0000  VDWAALS    =        76.6350
 EELEC  =       100.7704  EHBOND  =         0.0000  RESTRAINT  =         0.0000
 EKCMT  =        40.8976  VIRIAL  =       368.6561  VOLUME     =        17.8501
                                                    Density    =         0.0002
 DV/DL  =        25.9183
 ------------------------------------------------------------------------------

      DV/DL, AVERAGES OVER    1000 STEPS

 NSTEP =   500000   TIME(PS) =    1200.000  TEMP(K) =     2.42  PRESS =     0.0
 Etot   =         0.0000  EKtot   =         0.0000  EPtot      =       319.7004
 BOND   =         0.0000  ANGLE   =         0.0000  DIHED      =         0.0000
 1-4 NB =         0.0000  1-4 EEL =         0.0000  VDWAALS    =         0.0000
 EELEC  =       319.7004  EHBOND  =         0.0000  RESTRAINT  =         0.0000
 EKCMT  =         0.0000  VIRIAL  =         0.0000  VOLUME     =         0.0000
                                                    Density    =         0.0000
 DV/DL  =       319.7004
 ------------------------------------------------------------------------------

      A V E R A G E S   O V E R  500000 S T E P S

 NSTEP =   500000   TIME(PS) =    1200.000  TEMP(K) =   300.48  PRESS =   -10.0
 Etot   =    -29467.2827  EKtot   =      6816.8992  EPtot      =    -36284.1819
 BOND   =         1.2371  ANGLE   =         7.7563  DIHED      =         0.0000
 1-4 NB =         0.0000  1-4 EEL =         0.0000  VDWAALS    =      5414.6593
 EELEC  =    -41707.8346  EHBOND  =         0.0000  RESTRAINT  =         0.0000
 EKCMT  =      3420.8597  VIRIAL  =      3447.4212  VOLUME     =    116055.4569
                                                    Density    =         0.9818
 DV/DL  =       317.1826
 ------------------------------------------------------------------------------

      R M S  F L U C T U A T I O N S

 NSTEP =   500000   TIME(PS) =    1200.000  TEMP(K) =     2.78  PRESS =   187.3
 Etot   =       120.1010  EKtot   =        63.0608  EPtot      =       102.4878
 BOND   =         0.8815  ANGLE   =         0.9446  DIHED      =         0.0000
 1-4 NB =         0.0000  1-4 EEL =         0.0000  VDWAALS    =        92.8371
 EELEC  =       157.3459  EHBOND  =         0.0000  RESTRAINT  =         0.0000
 EKCMT  =        44.9976  VIRIAL  =       472.1973  VOLUME     =       989.3733
                                                    Density    =         0.0078
 DV/DL  =        26.3693
 ------------------------------------------------------------------------------

      A V E R A G E S   O V E R  500000 S T E P S

 NSTEP =   500000   TIME(PS) =    1200.000  TEMP(K) =   300.48  PRESS =   -10.0
 Etot   =    -29467.2827  EKtot   =      6816.8992  EPtot      =    -36284.1819
 BOND   =         1.2371  ANGLE   =         7.7563  DIHED      =         0.0000
 1-4 NB =         0.0000  1-4 EEL =         0.0000  VDWAALS    =      5414.6593
 EELEC  =    -41707.8346  EHBOND  =         0.0000  RESTRAINT  =         0.0000
 EKCMT  =      3420.8597  VIRIAL  =      3447.4212  VOLUME     =    116055.4569
                                                    Density    =         0.9818
 DV/DL  =       317.1826
 ------------------------------------------------------------------------------

      R M S  F L U C T U A T I O N S

 NSTEP =   500000   TIME(PS) =    1200.000  TEMP(K) =     2.78  PRESS =   187.3
 Etot   =       120.1010  EKtot   =        63.0608  EPtot      =       102.4878
 BOND   =         0.8815  ANGLE   =         0.9446  DIHED      =         0.0000
 1-4 NB =         0.0000  1-4 EEL =         0.0000  VDWAALS    =        92.8371
 EELEC  =       157.3459  EHBOND  =         0.0000  RESTRAINT  =         0.0000
 EKCMT  =        44.9976  VIRIAL  =       472.1973  VOLUME     =       989.3733
                                                    Density    =         0.0078
 DV/DL  =        26.3693
 ------------------------------------------------------------------------------

      DV/DL, AVERAGES OVER  500000 STEPS

 NSTEP =   500000   TIME(PS) =    1200.000  TEMP(K) =     2.78  PRESS =     0.0
 Etot   =         0.0000  EKtot   =         0.0000  EPtot      =       317.1826
 BOND   =         0.0000  ANGLE   =         0.0000  DIHED      =         0.0000
 1-4 NB =         0.0000  1-4 EEL =         0.0000  VDWAALS    =         0.0000
 EELEC  =       317.1826  EHBOND  =         0.0000  RESTRAINT  =         0.0000
 EKCMT  =         0.0000  VIRIAL  =         0.0000  VOLUME     =         0.0000
                                                    Density    =         0.0000
 DV/DL  =       317.1826
 ------------------------------------------------------------------------------
