-------------------------------------------------------
          Amber 20 PMEMD                              2020
          -------------------------------------------------------

  [-O]verwriting output

File Assignments:

 Here is the input file:

 &cntrl
   nstlim=500000, nscm=1000,
   ntx=5, irest=1, ntpr=1000,
   tempi=300.0, temp0=300.0, ntt=3, gamma_ln=2.0,
   ntp=1, pres0=1.01325, taup=5.0,
   ntb=2, igb=0, cut=10.0,
   dt=0.002, ig=-1,
   ntc=2, ntf=2,
   iwrap=0,
   ntwr=1000, ntwx=50000, ntave=1000,
   ioutfm=1, ntwv=-1,
   ifsc = 0, icfe=1,
   clambda=0.95206,
   timask1=':1',
   timask2=':2', crgmask = ':2',
/

Note: ig = -1. Setting random seed to   688736 based on wallclock time in
      microseconds.

--------------------------------------------------------------------------------
   1.  RESOURCE   USE:
--------------------------------------------------------------------------------

 getting box info from netcdf restart file
 NATOM  =   11419 NTYPES =       4 NBONH =   11409 MBONA  =       8
 NTHETH =       0 MTHETA =      12 NPHIH =       0 MPHIA  =       0
 NHPARM =       0 NPARM  =       0 NNB   =   15234 NRES   =    3805
 NBONA  =       8 NTHETA =      12 NPHIA =       0 NUMBND =       3
 NUMANG =       1 NPTRA  =       0 NATYP =       4 NPHB   =       1
 IFBOX  =       2 NMXRS  =       5 IFCAP =       0 NEXTRA =       0
 NCOPY  =       0

     BOX TYPE: TRUNCATED OCTAHEDRON

--------------------------------------------------------------------------------
   2.  CONTROL  DATA  FOR  THE  RUN
--------------------------------------------------------------------------------

default_name

General flags:
     imin    =       0, nmropt  =       0

Nature and format of input:
     ntx     =       5, irest   =       1, ntrx    =       1

Nature and format of output:
     ntxo    =       2, ntpr    =    1000, ntrx    =       1, ntwr    =    1000
     iwrap   =       0, ntwx    =   50000, ntwv    =      -1, ntwe    =       0
     ioutfm  =       1, ntwprt  =       0, idecomp =       0, rbornstat=      0

Potential function:
     ntf     =       2, ntb     =       2, igb     =       0, nsnb    =      25
     ipol    =       0, gbsa    =       0, iesp    =       0
     dielc   =   1.00000, cut     =  10.00000, intdiel =   1.00000

Frozen or restrained atoms:
     ibelly  =       0, ntr     =       0

Molecular dynamics:
     nstlim  =    500000, nscm    =      1000, nrespa  =         1
     t       =   0.00000, dt      =   0.00200, vlimit  =  -1.00000

Langevin dynamics temperature regulation:
     ig      =  688736
     temp0   = 300.00000, tempi   = 300.00000, gamma_ln=   2.00000

Pressure regulation:
     ntp     =       1
     pres0   =   1.01325, comp    =  44.60000, taup    =   5.00000

SHAKE:
     ntc     =       2, jfastw  =       0
     tol     =   0.00001

Free energy options:
     icfe    =       1, ifsc    =       0, klambda =       1
     clambda =  0.9521, scalpha =  0.5000, scbeta  = 12.0000
     sceeorder =       2
     dynlmb =  0.0000 logdvdl =       0

Ewald parameters:
     verbose =       0, ew_type =       0, nbflag  =       1, use_pme =       1
     vdwmeth =       1, eedmeth =       1, netfrc  =       1
     Box X =   55.004   Box Y =   55.004   Box Z =   55.004
     Alpha =  109.471   Beta  =  109.471   Gamma =  109.471
     NFFT1 =   56       NFFT2 =   56       NFFT3 =   56
     Cutoff=   10.000   Tol   =0.100E-04
     Ewald Coefficient =  0.27511
     Interpolation order =    4
     TI Mask 1 :1; matches      5 atoms
     TI Mask 2 :2; matches      5 atoms
     TI region 1:   11414 atoms
     TI region 2:   11414 atoms
Removing charge of       1.4352 from atom       6
Removing charge of      -1.1088 from atom       7
Removing charge of      -1.1088 from atom       8
Removing charge of      -1.1088 from atom       9
Removing charge of      -1.1088 from atom      10
Total charge of  -2.99999999 removed from       5 atoms
     Checking for mismatched coordinates.

--------------------------------------------------------------------------------
   3.  ATOMIC COORDINATES AND VELOCITIES
--------------------------------------------------------------------------------

default_name
 begin time read from input coords =   200.000 ps

 Number of triangulated 3-point waters found:     3803

     Sum of charges for TI region  1 =  -2.99999999
     Skip neutralizing charges...

     Sum of charges for TI region  2 =   0.00000000
     Skip neutralizing charges...

--------------------------------------------------------------------------------
   4.  RESULTS
 NSTEP =     1000   TIME(PS) =     202.000  TEMP(K) =   304.82  PRESS =  -881.3
 Etot   =    -28699.4823  EKtot   =      6915.4559  EPtot      =    -35614.9382
 BOND   =         0.3552  ANGLE   =         6.6941  DIHED      =         0.0000
 1-4 NB =         0.0000  1-4 EEL =         0.0000  VDWAALS    =      5215.8219
 EELEC  =    -40837.8094  EHBOND  =         0.0000  RESTRAINT  =         0.0000
 EKCMT  =      3466.4479  VIRIAL  =      5860.8500  VOLUME     =    125827.1907
                                                    Density    =         0.9055
 DV/DL  =       164.4242
 ------------------------------------------------------------------------------

      A V E R A G E S   O V E R    1000 S T E P S

 NSTEP =     1000   TIME(PS) =     202.000  TEMP(K) =   300.63  PRESS = -1004.6
 Etot   =    -28686.2634  EKtot   =      6820.3689  EPtot      =    -35506.6323
 BOND   =         1.1020  ANGLE   =         7.8220  DIHED      =         0.0000
 1-4 NB =         0.0000  1-4 EEL =         0.0000  VDWAALS    =      5167.5825
 EELEC  =    -40683.1387  EHBOND  =         0.0000  RESTRAINT  =         0.0000
 EKCMT  =      3412.0481  VIRIAL  =      6165.9117  VOLUME     =    126924.1793
                                                    Density    =         0.8977
 DV/DL  =       148.2128
 ------------------------------------------------------------------------------

      R M S  F L U C T U A T I O N S

 NSTEP =     1000   TIME(PS) =     202.000  TEMP(K) =     2.16  PRESS =   150.1
 Etot   =        39.1146  EKtot   =        49.0501  EPtot      =        56.5194
 BOND   =         0.6419  ANGLE   =         0.8633  DIHED      =         0.0000
 1-4 NB =         0.0000  1-4 EEL =         0.0000  VDWAALS    =        74.8707
 EELEC  =        90.6874  EHBOND  =         0.0000  RESTRAINT  =         0.0000
 EKCMT  =        36.3793  VIRIAL  =       423.7978  VOLUME     =       652.1063
                                                    Density    =         0.0046
 DV/DL  =        22.5363
 ------------------------------------------------------------------------------

      A V E R A G E S   O V E R    1000 S T E P S

 NSTEP =     1000   TIME(PS) =     202.000  TEMP(K) =   300.63  PRESS = -1004.6
 Etot   =    -28686.2634  EKtot   =      6820.3689  EPtot      =    -35506.6323
 BOND   =         1.1020  ANGLE   =         7.8220  DIHED      =         0.0000
 1-4 NB =         0.0000  1-4 EEL =         0.0000  VDWAALS    =      5167.5825
 EELEC  =    -40683.1387  EHBOND  =         0.0000  RESTRAINT  =         0.0000
 EKCMT  =      3412.0481  VIRIAL  =      6165.9117  VOLUME     =    126924.1793
                                                    Density    =         0.8977
 DV/DL  =       148.2128
 ------------------------------------------------------------------------------

      R M S  F L U C T U A T I O N S

 NSTEP =     1000   TIME(PS) =     202.000  TEMP(K) =     2.16  PRESS =   150.1
 Etot   =        39.1146  EKtot   =        49.0501  EPtot      =        56.5194
 BOND   =         0.6419  ANGLE   =         0.8633  DIHED      =         0.0000
 1-4 NB =         0.0000  1-4 EEL =         0.0000  VDWAALS    =        74.8707
 EELEC  =        90.6874  EHBOND  =         0.0000  RESTRAINT  =         0.0000
 EKCMT  =        36.3793  VIRIAL  =       423.7978  VOLUME     =       652.1063
                                                    Density    =         0.0046
 DV/DL  =        22.5363
 ------------------------------------------------------------------------------

      DV/DL, AVERAGES OVER    1000 STEPS

 NSTEP =     1000   TIME(PS) =     202.000  TEMP(K) =     2.16  PRESS =     0.0
 Etot   =         0.0000  EKtot   =         0.0000  EPtot      =       148.2128
 BOND   =         0.0000  ANGLE   =         0.0000  DIHED      =         0.0000
 1-4 NB =         0.0000  1-4 EEL =         0.0000  VDWAALS    =         0.0000
 EELEC  =       148.2128  EHBOND  =         0.0000  RESTRAINT  =         0.0000
 EKCMT  =         0.0000  VIRIAL  =         0.0000  VOLUME     =         0.0000
                                                    Density    =         0.0000
 DV/DL  =       148.2128
 ------------------------------------------------------------------------------

      A V E R A G E S   O V E R    1000 S T E P S

 NSTEP =     2000   TIME(PS) =     204.000  TEMP(K) =   300.54  PRESS =  -912.7
 Etot   =    -28803.8452  EKtot   =      6818.3588  EPtot      =    -35622.2040
 BOND   =         0.6732  ANGLE   =         8.3719  DIHED      =         0.0000
 1-4 NB =         0.0000  1-4 EEL =         0.0000  VDWAALS    =      5175.5234
 EELEC  =    -40806.7725  EHBOND  =         0.0000  RESTRAINT  =         0.0000
 EKCMT  =      3443.0322  VIRIAL  =      5902.5546  VOLUME     =    124832.2850
                                                    Density    =         0.9127
 DV/DL  =       159.5864
 ------------------------------------------------------------------------------

      R M S  F L U C T U A T I O N S

 NSTEP =     2000   TIME(PS) =     204.000  TEMP(K) =     2.47  PRESS =   125.6
 Etot   =        64.9885  EKtot   =        56.0701  EPtot      =        57.5634
 BOND   =         0.5277  ANGLE   =         1.1708  DIHED      =         0.0000
 1-4 NB =         0.0000  1-4 EEL =         0.0000  VDWAALS    =        70.7419
 EELEC  =        74.6443  EHBOND  =         0.0000  RESTRAINT  =         0.0000
 EKCMT  =        38.3991  VIRIAL  =       348.6768  VOLUME     =       599.2408
                                                    Density    =         0.0044
 DV/DL  =        24.1404
 ------------------------------------------------------------------------------

      A V E R A G E S   O V E R    1000 S T E P S

 NSTEP =     2000   TIME(PS) =     204.000  TEMP(K) =   300.54  PRESS =  -912.7
 Etot   =    -28803.8452  EKtot   =      6818.3588  EPtot      =    -35622.2040
 BOND   =         0.6732  ANGLE   =         8.3719  DIHED      =         0.0000
 1-4 NB =         0.0000  1-4 EEL =         0.0000  VDWAALS    =      5175.5234
 EELEC  =    -40806.7725  EHBOND  =         0.0000  RESTRAINT  =         0.0000
 EKCMT  =      3443.0322  VIRIAL  =      5902.5546  VOLUME     =    124832.2850
                                                    Density    =         0.9127
 DV/DL  =       159.5864
 ------------------------------------------------------------------------------

      R M S  F L U C T U A T I O N S

 NSTEP =     2000   TIME(PS) =     204.000  TEMP(K) =     2.47  PRESS =   125.6
 Etot   =        64.9885  EKtot   =        56.0701  EPtot      =        57.5634
 BOND   =         0.5277  ANGLE   =         1.1708  DIHED      =         0.0000
 1-4 NB =         0.0000  1-4 EEL =         0.0000  VDWAALS    =        70.7419
 EELEC  =        74.6443  EHBOND  =         0.0000  RESTRAINT  =         0.0000
 EKCMT  =        38.3991  VIRIAL  =       348.6768  VOLUME     =       599.2408
                                                    Density    =         0.0044
 DV/DL  =        24.1404
 ------------------------------------------------------------------------------

      DV/DL, AVERAGES OVER    1000 STEPS

 NSTEP =     2000   TIME(PS) =     204.000  TEMP(K) =     2.47  PRESS =     0.0
 Etot   =         0.0000  EKtot   =         0.0000  EPtot      =       159.5864
 BOND   =         0.0000  ANGLE   =         0.0000  DIHED      =         0.0000
 1-4 NB =         0.0000  1-4 EEL =         0.0000  VDWAALS    =         0.0000
 EELEC  =       159.5864  EHBOND  =         0.0000  RESTRAINT  =         0.0000
 EKCMT  =         0.0000  VIRIAL  =         0.0000  VOLUME     =         0.0000
                                                    Density    =         0.0000
 DV/DL  =       159.5864
 ------------------------------------------------------------------------------

      A V E R A G E S   O V E R    1000 S T E P S

 NSTEP =   500000   TIME(PS) =    1200.000  TEMP(K) =   299.62  PRESS =   -85.5
 Etot   =    -29461.0576  EKtot   =      6797.4559  EPtot      =    -36258.5135
 BOND   =         2.1834  ANGLE   =         7.8189  DIHED      =         0.0000
 1-4 NB =         0.0000  1-4 EEL =         0.0000  VDWAALS    =      5357.5834
 EELEC  =    -41626.0992  EHBOND  =         0.0000  RESTRAINT  =         0.0000
 EKCMT  =      3395.7976  VIRIAL  =      3609.2801  VOLUME     =    115595.0094
                                                    Density    =         0.9856
 DV/DL  =       152.1901
 ------------------------------------------------------------------------------

      R M S  F L U C T U A T I O N S

 NSTEP =   500000   TIME(PS) =    1200.000  TEMP(K) =     2.42  PRESS =   153.5
 Etot   =        95.1944  EKtot   =        54.8270  EPtot      =        91.3713
 BOND   =         1.3649  ANGLE   =         0.8547  DIHED      =         0.0000
 1-4 NB =         0.0000  1-4 EEL =         0.0000  VDWAALS    =        92.1956
 EELEC  =       158.0521  EHBOND  =         0.0000  RESTRAINT  =         0.0000
 EKCMT  =        41.3795  VIRIAL  =       389.5412  VOLUME     =        56.8537
                                                    Density    =         0.0005
 DV/DL  =        22.3484
 ------------------------------------------------------------------------------

      A V E R A G E S   O V E R    1000 S T E P S

 NSTEP =   500000   TIME(PS) =    1200.000  TEMP(K) =   299.62  PRESS =   -85.5
 Etot   =    -29461.0576  EKtot   =      6797.4559  EPtot      =    -36258.5135
 BOND   =         2.1834  ANGLE   =         7.8189  DIHED      =         0.0000
 1-4 NB =         0.0000  1-4 EEL =         0.0000  VDWAALS    =      5357.5834
 EELEC  =    -41626.0992  EHBOND  =         0.0000  RESTRAINT  =         0.0000
 EKCMT  =      3395.7976  VIRIAL  =      3609.2801  VOLUME     =    115595.0094
                                                    Density    =         0.9856
 DV/DL  =       152.1901
 ------------------------------------------------------------------------------

      R M S  F L U C T U A T I O N S

 NSTEP =   500000   TIME(PS) =    1200.000  TEMP(K) =     2.42  PRESS =   153.5
 Etot   =        95.1944  EKtot   =        54.8270  EPtot      =        91.3713
 BOND   =         1.3649  ANGLE   =         0.8547  DIHED      =         0.0000
 1-4 NB =         0.0000  1-4 EEL =         0.0000  VDWAALS    =        92.1956
 EELEC  =       158.0521  EHBOND  =         0.0000  RESTRAINT  =         0.0000
 EKCMT  =        41.3795  VIRIAL  =       389.5412  VOLUME     =        56.8537
                                                    Density    =         0.0005
 DV/DL  =        22.3484
 ------------------------------------------------------------------------------

      DV/DL, AVERAGES OVER    1000 STEPS

 NSTEP =   500000   TIME(PS) =    1200.000  TEMP(K) =     2.42  PRESS =     0.0
 Etot   =         0.0000  EKtot   =         0.0000  EPtot      =       152.1901
 BOND   =         0.0000  ANGLE   =         0.0000  DIHED      =         0.0000
 1-4 NB =         0.0000  1-4 EEL =         0.0000  VDWAALS    =         0.0000
 EELEC  =       152.1901  EHBOND  =         0.0000  RESTRAINT  =         0.0000
 EKCMT  =         0.0000  VIRIAL  =         0.0000  VOLUME     =         0.0000
                                                    Density    =         0.0000
 DV/DL  =       152.1901
 ------------------------------------------------------------------------------

      A V E R A G E S   O V E R  500000 S T E P S

 NSTEP =   500000   TIME(PS) =    1200.000  TEMP(K) =   300.22  PRESS =   -10.5
 Etot   =    -29450.8333  EKtot   =      6810.9470  EPtot      =    -36261.7803
 BOND   =         1.2552  ANGLE   =         7.7582  DIHED      =         0.0000
 1-4 NB =         0.0000  1-4 EEL =         0.0000  VDWAALS    =      5416.6782
 EELEC  =    -41687.4719  EHBOND  =         0.0000  RESTRAINT  =         0.0000
 EKCMT  =      3416.4583  VIRIAL  =      3444.2981  VOLUME     =    115986.0261
                                                    Density    =         0.9823
 DV/DL  =       158.7483
 ------------------------------------------------------------------------------

      R M S  F L U C T U A T I O N S

 NSTEP =   500000   TIME(PS) =    1200.000  TEMP(K) =     2.79  PRESS =   194.4
 Etot   =       124.0050  EKtot   =        63.3972  EPtot      =       106.1459
 BOND   =         0.8779  ANGLE   =         0.9607  DIHED      =         0.0000
 1-4 NB =         0.0000  1-4 EEL =         0.0000  VDWAALS    =        94.9129
 EELEC  =       164.3729  EHBOND  =         0.0000  RESTRAINT  =         0.0000
 EKCMT  =        45.1741  VIRIAL  =       491.8802  VOLUME     =       815.1234
                                                    Density    =         0.0065
 DV/DL  =        23.8680
 ------------------------------------------------------------------------------

      A V E R A G E S   O V E R  500000 S T E P S

 NSTEP =   500000   TIME(PS) =    1200.000  TEMP(K) =   300.22  PRESS =   -10.5
 Etot   =    -29450.8333  EKtot   =      6810.9470  EPtot      =    -36261.7803
 BOND   =         1.2552  ANGLE   =         7.7582  DIHED      =         0.0000
 1-4 NB =         0.0000  1-4 EEL =         0.0000  VDWAALS    =      5416.6782
 EELEC  =    -41687.4719  EHBOND  =         0.0000  RESTRAINT  =         0.0000
 EKCMT  =      3416.4583  VIRIAL  =      3444.2981  VOLUME     =    115986.0261
                                                    Density    =         0.9823
 DV/DL  =       158.7483
 ------------------------------------------------------------------------------

      R M S  F L U C T U A T I O N S

 NSTEP =   500000   TIME(PS) =    1200.000  TEMP(K) =     2.79  PRESS =   194.4
 Etot   =       124.0050  EKtot   =        63.3972  EPtot      =       106.1459
 BOND   =         0.8779  ANGLE   =         0.9607  DIHED      =         0.0000
 1-4 NB =         0.0000  1-4 EEL =         0.0000  VDWAALS    =        94.9129
 EELEC  =       164.3729  EHBOND  =         0.0000  RESTRAINT  =         0.0000
 EKCMT  =        45.1741  VIRIAL  =       491.8802  VOLUME     =       815.1234
                                                    Density    =         0.0065
 DV/DL  =        23.8680
 ------------------------------------------------------------------------------

      DV/DL, AVERAGES OVER  500000 STEPS

 NSTEP =   500000   TIME(PS) =    1200.000  TEMP(K) =     2.79  PRESS =     0.0
 Etot   =         0.0000  EKtot   =         0.0000  EPtot      =       158.7483
 BOND   =         0.0000  ANGLE   =         0.0000  DIHED      =         0.0000
 1-4 NB =         0.0000  1-4 EEL =         0.0000  VDWAALS    =         0.0000
 EELEC  =       158.7483  EHBOND  =         0.0000  RESTRAINT  =         0.0000
 EKCMT  =         0.0000  VIRIAL  =         0.0000  VOLUME     =         0.0000
                                                    Density    =         0.0000
 DV/DL  =       158.7483
 ------------------------------------------------------------------------------
