-------------------------------------------------------
          Amber 20 PMEMD                              2020
          -------------------------------------------------------

  [-O]verwriting output

File Assignments:

 Here is the input file:

 &cntrl
   nstlim=500000, nscm=1000,
   ntx=5, irest=1, ntpr=1000,
   tempi=300.0, temp0=300.0, ntt=3, gamma_ln=2.0,
   ntp=1, pres0=1.01325, taup=5.0,
   ntb=2, igb=0, cut=10.0,
   dt=0.002, ig=-1,
   ntc=2, ntf=2,
   iwrap=0,
   ntwr=1000, ntwx=50000, ntave=1000,
   ioutfm=1, ntwv=-1,
   ifsc = 0, icfe=1,
   clambda=0.43738,
   timask1=':1',
   timask2=':2', crgmask = ':2',
/

Note: ig = -1. Setting random seed to   731566 based on wallclock time in
      microseconds.

--------------------------------------------------------------------------------
   1.  RESOURCE   USE:
--------------------------------------------------------------------------------

 getting box info from netcdf restart file
 NATOM  =   11419 NTYPES =       4 NBONH =   11409 MBONA  =       8
 NTHETH =       0 MTHETA =      12 NPHIH =       0 MPHIA  =       0
 NHPARM =       0 NPARM  =       0 NNB   =   15234 NRES   =    3805
 NBONA  =       8 NTHETA =      12 NPHIA =       0 NUMBND =       3
 NUMANG =       1 NPTRA  =       0 NATYP =       4 NPHB   =       1
 IFBOX  =       2 NMXRS  =       5 IFCAP =       0 NEXTRA =       0
 NCOPY  =       0

     BOX TYPE: TRUNCATED OCTAHEDRON

--------------------------------------------------------------------------------
   2.  CONTROL  DATA  FOR  THE  RUN
--------------------------------------------------------------------------------

default_name

General flags:
     imin    =       0, nmropt  =       0

Nature and format of input:
     ntx     =       5, irest   =       1, ntrx    =       1

Nature and format of output:
     ntxo    =       2, ntpr    =    1000, ntrx    =       1, ntwr    =    1000
     iwrap   =       0, ntwx    =   50000, ntwv    =      -1, ntwe    =       0
     ioutfm  =       1, ntwprt  =       0, idecomp =       0, rbornstat=      0

Potential function:
     ntf     =       2, ntb     =       2, igb     =       0, nsnb    =      25
     ipol    =       0, gbsa    =       0, iesp    =       0
     dielc   =   1.00000, cut     =  10.00000, intdiel =   1.00000

Frozen or restrained atoms:
     ibelly  =       0, ntr     =       0

Molecular dynamics:
     nstlim  =    500000, nscm    =      1000, nrespa  =         1
     t       =   0.00000, dt      =   0.00200, vlimit  =  -1.00000

Langevin dynamics temperature regulation:
     ig      =  731566
     temp0   = 300.00000, tempi   = 300.00000, gamma_ln=   2.00000

Pressure regulation:
     ntp     =       1
     pres0   =   1.01325, comp    =  44.60000, taup    =   5.00000

SHAKE:
     ntc     =       2, jfastw  =       0
     tol     =   0.00001

Free energy options:
     icfe    =       1, ifsc    =       0, klambda =       1
     clambda =  0.4374, scalpha =  0.5000, scbeta  = 12.0000
     sceeorder =       2
     dynlmb =  0.0000 logdvdl =       0

Ewald parameters:
     verbose =       0, ew_type =       0, nbflag  =       1, use_pme =       1
     vdwmeth =       1, eedmeth =       1, netfrc  =       1
     Box X =   55.004   Box Y =   55.004   Box Z =   55.004
     Alpha =  109.471   Beta  =  109.471   Gamma =  109.471
     NFFT1 =   56       NFFT2 =   56       NFFT3 =   56
     Cutoff=   10.000   Tol   =0.100E-04
     Ewald Coefficient =  0.27511
     Interpolation order =    4
     TI Mask 1 :1; matches      5 atoms
     TI Mask 2 :2; matches      5 atoms
     TI region 1:   11414 atoms
     TI region 2:   11414 atoms
Removing charge of       1.4352 from atom       6
Removing charge of      -1.1088 from atom       7
Removing charge of      -1.1088 from atom       8
Removing charge of      -1.1088 from atom       9
Removing charge of      -1.1088 from atom      10
Total charge of  -2.99999999 removed from       5 atoms
     Checking for mismatched coordinates.

--------------------------------------------------------------------------------
   3.  ATOMIC COORDINATES AND VELOCITIES
--------------------------------------------------------------------------------

default_name
 begin time read from input coords =   200.000 ps

 Number of triangulated 3-point waters found:     3803

     Sum of charges for TI region  1 =  -2.99999999
     Skip neutralizing charges...

     Sum of charges for TI region  2 =   0.00000000
     Skip neutralizing charges...

--------------------------------------------------------------------------------
   4.  RESULTS
 NSTEP =     1000   TIME(PS) =     202.000  TEMP(K) =   296.74  PRESS = -1009.7
 Etot   =    -29061.9203  EKtot   =      6732.0625  EPtot      =    -35793.9828
 BOND   =         0.4936  ANGLE   =         7.8193  DIHED      =         0.0000
 1-4 NB =         0.0000  1-4 EEL =         0.0000  VDWAALS    =      5108.0057
 EELEC  =    -40910.3015  EHBOND  =         0.0000  RESTRAINT  =         0.0000
 EKCMT  =      3353.0644  VIRIAL  =      6097.9455  VOLUME     =    125912.2536
                                                    Density    =         0.9048
 DV/DL  =       661.4360
 ------------------------------------------------------------------------------

      A V E R A G E S   O V E R    1000 S T E P S

 NSTEP =     1000   TIME(PS) =     202.000  TEMP(K) =   299.09  PRESS =  -966.8
 Etot   =    -29014.1125  EKtot   =      6785.3798  EPtot      =    -35799.4923
 BOND   =         1.6297  ANGLE   =         7.8765  DIHED      =         0.0000
 1-4 NB =         0.0000  1-4 EEL =         0.0000  VDWAALS    =      5197.8577
 EELEC  =    -41006.8562  EHBOND  =         0.0000  RESTRAINT  =         0.0000
 EKCMT  =      3399.6593  VIRIAL  =      6050.9243  VOLUME     =    126917.4597
                                                    Density    =         0.8977
 DV/DL  =       697.3805
 ------------------------------------------------------------------------------

      R M S  F L U C T U A T I O N S

 NSTEP =     1000   TIME(PS) =     202.000  TEMP(K) =     2.35  PRESS =   214.7
 Etot   =        40.6838  EKtot   =        53.2285  EPtot      =        67.2724
 BOND   =         0.9210  ANGLE   =         0.9494  DIHED      =         0.0000
 1-4 NB =         0.0000  1-4 EEL =         0.0000  VDWAALS    =       105.1411
 EELEC  =       135.5940  EHBOND  =         0.0000  RESTRAINT  =         0.0000
 EKCMT  =        35.5746  VIRIAL  =       599.9240  VOLUME     =       643.5527
                                                    Density    =         0.0045
 DV/DL  =        25.5093
 ------------------------------------------------------------------------------

      A V E R A G E S   O V E R    1000 S T E P S

 NSTEP =     1000   TIME(PS) =     202.000  TEMP(K) =   299.09  PRESS =  -966.8
 Etot   =    -29014.1125  EKtot   =      6785.3798  EPtot      =    -35799.4923
 BOND   =         1.6297  ANGLE   =         7.8765  DIHED      =         0.0000
 1-4 NB =         0.0000  1-4 EEL =         0.0000  VDWAALS    =      5197.8577
 EELEC  =    -41006.8562  EHBOND  =         0.0000  RESTRAINT  =         0.0000
 EKCMT  =      3399.6593  VIRIAL  =      6050.9243  VOLUME     =    126917.4597
                                                    Density    =         0.8977
 DV/DL  =       697.3805
 ------------------------------------------------------------------------------

      R M S  F L U C T U A T I O N S

 NSTEP =     1000   TIME(PS) =     202.000  TEMP(K) =     2.35  PRESS =   214.7
 Etot   =        40.6838  EKtot   =        53.2285  EPtot      =        67.2724
 BOND   =         0.9210  ANGLE   =         0.9494  DIHED      =         0.0000
 1-4 NB =         0.0000  1-4 EEL =         0.0000  VDWAALS    =       105.1411
 EELEC  =       135.5940  EHBOND  =         0.0000  RESTRAINT  =         0.0000
 EKCMT  =        35.5746  VIRIAL  =       599.9240  VOLUME     =       643.5527
                                                    Density    =         0.0045
 DV/DL  =        25.5093
 ------------------------------------------------------------------------------

      DV/DL, AVERAGES OVER    1000 STEPS

 NSTEP =     1000   TIME(PS) =     202.000  TEMP(K) =     2.35  PRESS =     0.0
 Etot   =         0.0000  EKtot   =         0.0000  EPtot      =       697.3805
 BOND   =         0.0000  ANGLE   =         0.0000  DIHED      =         0.0000
 1-4 NB =         0.0000  1-4 EEL =         0.0000  VDWAALS    =         0.0000
 EELEC  =       697.3805  EHBOND  =         0.0000  RESTRAINT  =         0.0000
 EKCMT  =         0.0000  VIRIAL  =         0.0000  VOLUME     =         0.0000
                                                    Density    =         0.0000
 DV/DL  =       697.3805
 ------------------------------------------------------------------------------

      A V E R A G E S   O V E R    1000 S T E P S

 NSTEP =     2000   TIME(PS) =     204.000  TEMP(K) =   299.63  PRESS =  -791.6
 Etot   =    -29181.9675  EKtot   =      6797.6094  EPtot      =    -35979.5769
 BOND   =         1.5344  ANGLE   =         7.5500  DIHED      =         0.0000
 1-4 NB =         0.0000  1-4 EEL =         0.0000  VDWAALS    =      5282.2913
 EELEC  =    -41270.9527  EHBOND  =         0.0000  RESTRAINT  =         0.0000
 EKCMT  =      3395.1633  VIRIAL  =      5532.1727  VOLUME     =    125082.4214
                                                    Density    =         0.9109
 DV/DL  =       705.0577
 ------------------------------------------------------------------------------

      R M S  F L U C T U A T I O N S

 NSTEP =     2000   TIME(PS) =     204.000  TEMP(K) =     2.27  PRESS =   190.4
 Etot   =        46.6260  EKtot   =        51.5311  EPtot      =        58.0075
 BOND   =         0.8532  ANGLE   =         0.8379  DIHED      =         0.0000
 1-4 NB =         0.0000  1-4 EEL =         0.0000  VDWAALS    =       113.1481
 EELEC  =       135.2538  EHBOND  =         0.0000  RESTRAINT  =         0.0000
 EKCMT  =        34.5706  VIRIAL  =       507.9240  VOLUME     =       487.7421
                                                    Density    =         0.0036
 DV/DL  =        21.7661
 ------------------------------------------------------------------------------

      A V E R A G E S   O V E R    1000 S T E P S

 NSTEP =     2000   TIME(PS) =     204.000  TEMP(K) =   299.63  PRESS =  -791.6
 Etot   =    -29181.9675  EKtot   =      6797.6094  EPtot      =    -35979.5769
 BOND   =         1.5344  ANGLE   =         7.5500  DIHED      =         0.0000
 1-4 NB =         0.0000  1-4 EEL =         0.0000  VDWAALS    =      5282.2913
 EELEC  =    -41270.9527  EHBOND  =         0.0000  RESTRAINT  =         0.0000
 EKCMT  =      3395.1633  VIRIAL  =      5532.1727  VOLUME     =    125082.4214
                                                    Density    =         0.9109
 DV/DL  =       705.0577
 ------------------------------------------------------------------------------

      R M S  F L U C T U A T I O N S

 NSTEP =     2000   TIME(PS) =     204.000  TEMP(K) =     2.27  PRESS =   190.4
 Etot   =        46.6260  EKtot   =        51.5311  EPtot      =        58.0075
 BOND   =         0.8532  ANGLE   =         0.8379  DIHED      =         0.0000
 1-4 NB =         0.0000  1-4 EEL =         0.0000  VDWAALS    =       113.1481
 EELEC  =       135.2538  EHBOND  =         0.0000  RESTRAINT  =         0.0000
 EKCMT  =        34.5706  VIRIAL  =       507.9240  VOLUME     =       487.7421
                                                    Density    =         0.0036
 DV/DL  =        21.7661
 ------------------------------------------------------------------------------

      DV/DL, AVERAGES OVER    1000 STEPS

 NSTEP =     2000   TIME(PS) =     204.000  TEMP(K) =     2.27  PRESS =     0.0
 Etot   =         0.0000  EKtot   =         0.0000  EPtot      =       705.0577
 BOND   =         0.0000  ANGLE   =         0.0000  DIHED      =         0.0000
 1-4 NB =         0.0000  1-4 EEL =         0.0000  VDWAALS    =         0.0000
 EELEC  =       705.0577  EHBOND  =         0.0000  RESTRAINT  =         0.0000
 EKCMT  =         0.0000  VIRIAL  =         0.0000  VOLUME     =         0.0000
                                                    Density    =         0.0000
 DV/DL  =       705.0577
 ------------------------------------------------------------------------------

      A V E R A G E S   O V E R    1000 S T E P S

 NSTEP =   500000   TIME(PS) =    1200.000  TEMP(K) =   300.62  PRESS =    41.3
 Etot   =    -29674.1164  EKtot   =      6820.1798  EPtot      =    -36494.2961
 BOND   =         0.9707  ANGLE   =         7.9129  DIHED      =         0.0000
 1-4 NB =         0.0000  1-4 EEL =         0.0000  VDWAALS    =      5454.2177
 EELEC  =    -41957.3975  EHBOND  =         0.0000  RESTRAINT  =         0.0000
 EKCMT  =      3430.2140  VIRIAL  =      3327.0439  VOLUME     =    115745.0560
                                                    Density    =         0.9843
 DV/DL  =       700.1050
 ------------------------------------------------------------------------------

      R M S  F L U C T U A T I O N S

 NSTEP =   500000   TIME(PS) =    1200.000  TEMP(K) =     2.43  PRESS =   155.9
 Etot   =        61.6905  EKtot   =        55.1843  EPtot      =        70.5715
 BOND   =         0.6381  ANGLE   =         0.9877  DIHED      =         0.0000
 1-4 NB =         0.0000  1-4 EEL =         0.0000  VDWAALS    =        79.1328
 EELEC  =       110.3382  EHBOND  =         0.0000  RESTRAINT  =         0.0000
 EKCMT  =        44.0547  VIRIAL  =       406.6851  VOLUME     =        26.6660
                                                    Density    =         0.0002
 DV/DL  =        26.5799
 ------------------------------------------------------------------------------

      A V E R A G E S   O V E R    1000 S T E P S

 NSTEP =   500000   TIME(PS) =    1200.000  TEMP(K) =   300.62  PRESS =    41.3
 Etot   =    -29674.1164  EKtot   =      6820.1798  EPtot      =    -36494.2961
 BOND   =         0.9707  ANGLE   =         7.9129  DIHED      =         0.0000
 1-4 NB =         0.0000  1-4 EEL =         0.0000  VDWAALS    =      5454.2177
 EELEC  =    -41957.3975  EHBOND  =         0.0000  RESTRAINT  =         0.0000
 EKCMT  =      3430.2140  VIRIAL  =      3327.0439  VOLUME     =    115745.0560
                                                    Density    =         0.9843
 DV/DL  =       700.1050
 ------------------------------------------------------------------------------

      R M S  F L U C T U A T I O N S

 NSTEP =   500000   TIME(PS) =    1200.000  TEMP(K) =     2.43  PRESS =   155.9
 Etot   =        61.6905  EKtot   =        55.1843  EPtot      =        70.5715
 BOND   =         0.6381  ANGLE   =         0.9877  DIHED      =         0.0000
 1-4 NB =         0.0000  1-4 EEL =         0.0000  VDWAALS    =        79.1328
 EELEC  =       110.3382  EHBOND  =         0.0000  RESTRAINT  =         0.0000
 EKCMT  =        44.0547  VIRIAL  =       406.6851  VOLUME     =        26.6660
                                                    Density    =         0.0002
 DV/DL  =        26.5799
 ------------------------------------------------------------------------------

      DV/DL, AVERAGES OVER    1000 STEPS

 NSTEP =   500000   TIME(PS) =    1200.000  TEMP(K) =     2.43  PRESS =     0.0
 Etot   =         0.0000  EKtot   =         0.0000  EPtot      =       700.1050
 BOND   =         0.0000  ANGLE   =         0.0000  DIHED      =         0.0000
 1-4 NB =         0.0000  1-4 EEL =         0.0000  VDWAALS    =         0.0000
 EELEC  =       700.1050  EHBOND  =         0.0000  RESTRAINT  =         0.0000
 EKCMT  =         0.0000  VIRIAL  =         0.0000  VOLUME     =         0.0000
                                                    Density    =         0.0000
 DV/DL  =       700.1050
 ------------------------------------------------------------------------------

      A V E R A G E S   O V E R  500000 S T E P S

 NSTEP =   500000   TIME(PS) =    1200.000  TEMP(K) =   300.37  PRESS =   -10.3
 Etot   =    -29683.4552  EKtot   =      6814.3487  EPtot      =    -36497.8039
 BOND   =         1.2741  ANGLE   =         7.7875  DIHED      =         0.0000
 1-4 NB =         0.0000  1-4 EEL =         0.0000  VDWAALS    =      5428.4717
 EELEC  =    -41935.3371  EHBOND  =         0.0000  RESTRAINT  =         0.0000
 EKCMT  =      3419.3602  VIRIAL  =      3446.6029  VOLUME     =    115829.0364
                                                    Density    =         0.9837
 DV/DL  =       711.7830
 ------------------------------------------------------------------------------

      R M S  F L U C T U A T I O N S

 NSTEP =   500000   TIME(PS) =    1200.000  TEMP(K) =     2.76  PRESS =   192.7
 Etot   =       119.7230  EKtot   =        62.6970  EPtot      =       103.4083
 BOND   =         0.8819  ANGLE   =         0.9759  DIHED      =         0.0000
 1-4 NB =         0.0000  1-4 EEL =         0.0000  VDWAALS    =        93.2315
 EELEC  =       159.6711  EHBOND  =         0.0000  RESTRAINT  =         0.0000
 EKCMT  =        45.0744  VIRIAL  =       486.1269  VOLUME     =       854.6189
                                                    Density    =         0.0068
 DV/DL  =        26.5764
 ------------------------------------------------------------------------------

      A V E R A G E S   O V E R  500000 S T E P S

 NSTEP =   500000   TIME(PS) =    1200.000  TEMP(K) =   300.37  PRESS =   -10.3
 Etot   =    -29683.4552  EKtot   =      6814.3487  EPtot      =    -36497.8039
 BOND   =         1.2741  ANGLE   =         7.7875  DIHED      =         0.0000
 1-4 NB =         0.0000  1-4 EEL =         0.0000  VDWAALS    =      5428.4717
 EELEC  =    -41935.3371  EHBOND  =         0.0000  RESTRAINT  =         0.0000
 EKCMT  =      3419.3602  VIRIAL  =      3446.6029  VOLUME     =    115829.0364
                                                    Density    =         0.9837
 DV/DL  =       711.7830
 ------------------------------------------------------------------------------

      R M S  F L U C T U A T I O N S

 NSTEP =   500000   TIME(PS) =    1200.000  TEMP(K) =     2.76  PRESS =   192.7
 Etot   =       119.7230  EKtot   =        62.6970  EPtot      =       103.4083
 BOND   =         0.8819  ANGLE   =         0.9759  DIHED      =         0.0000
 1-4 NB =         0.0000  1-4 EEL =         0.0000  VDWAALS    =        93.2315
 EELEC  =       159.6711  EHBOND  =         0.0000  RESTRAINT  =         0.0000
 EKCMT  =        45.0744  VIRIAL  =       486.1269  VOLUME     =       854.6189
                                                    Density    =         0.0068
 DV/DL  =        26.5764
 ------------------------------------------------------------------------------

      DV/DL, AVERAGES OVER  500000 STEPS

 NSTEP =   500000   TIME(PS) =    1200.000  TEMP(K) =     2.76  PRESS =     0.0
 Etot   =         0.0000  EKtot   =         0.0000  EPtot      =       711.7830
 BOND   =         0.0000  ANGLE   =         0.0000  DIHED      =         0.0000
 1-4 NB =         0.0000  1-4 EEL =         0.0000  VDWAALS    =         0.0000
 EELEC  =       711.7830  EHBOND  =         0.0000  RESTRAINT  =         0.0000
 EKCMT  =         0.0000  VIRIAL  =         0.0000  VOLUME     =         0.0000
                                                    Density    =         0.0000
 DV/DL  =       711.7830
 ------------------------------------------------------------------------------
