-------------------------------------------------------
          Amber 20 PMEMD                              2020
          -------------------------------------------------------

  [-O]verwriting output

File Assignments:

 Here is the input file:

 &cntrl
   nstlim=500000, nscm=1000,
   ntx=5, irest=1, ntpr=1000,
   tempi=300.0, temp0=300.0, ntt=3, gamma_ln=2.0,
   ntp=1, pres0=1.01325, taup=5.0,
   ntb=2, igb=0, cut=10.0,
   dt=0.002, ig=-1,
   ntc=2, ntf=2,
   iwrap=0,
   ntwr=1000, ntwx=50000, ntave=1000,
   ioutfm=1, ntwv=-1,
   ifsc = 0, icfe=1,
   clambda=0.56262,
   timask1=':1',
   timask2=':2', crgmask = ':2',
/

Note: ig = -1. Setting random seed to    76030 based on wallclock time in
      microseconds.

--------------------------------------------------------------------------------
   1.  RESOURCE   USE:
--------------------------------------------------------------------------------

 getting box info from netcdf restart file
 NATOM  =   11419 NTYPES =       4 NBONH =   11409 MBONA  =       8
 NTHETH =       0 MTHETA =      12 NPHIH =       0 MPHIA  =       0
 NHPARM =       0 NPARM  =       0 NNB   =   15234 NRES   =    3805
 NBONA  =       8 NTHETA =      12 NPHIA =       0 NUMBND =       3
 NUMANG =       1 NPTRA  =       0 NATYP =       4 NPHB   =       1
 IFBOX  =       2 NMXRS  =       5 IFCAP =       0 NEXTRA =       0
 NCOPY  =       0

     BOX TYPE: TRUNCATED OCTAHEDRON

--------------------------------------------------------------------------------
   2.  CONTROL  DATA  FOR  THE  RUN
--------------------------------------------------------------------------------

default_name

General flags:
     imin    =       0, nmropt  =       0

Nature and format of input:
     ntx     =       5, irest   =       1, ntrx    =       1

Nature and format of output:
     ntxo    =       2, ntpr    =    1000, ntrx    =       1, ntwr    =    1000
     iwrap   =       0, ntwx    =   50000, ntwv    =      -1, ntwe    =       0
     ioutfm  =       1, ntwprt  =       0, idecomp =       0, rbornstat=      0

Potential function:
     ntf     =       2, ntb     =       2, igb     =       0, nsnb    =      25
     ipol    =       0, gbsa    =       0, iesp    =       0
     dielc   =   1.00000, cut     =  10.00000, intdiel =   1.00000

Frozen or restrained atoms:
     ibelly  =       0, ntr     =       0

Molecular dynamics:
     nstlim  =    500000, nscm    =      1000, nrespa  =         1
     t       =   0.00000, dt      =   0.00200, vlimit  =  -1.00000

Langevin dynamics temperature regulation:
     ig      =   76030
     temp0   = 300.00000, tempi   = 300.00000, gamma_ln=   2.00000

Pressure regulation:
     ntp     =       1
     pres0   =   1.01325, comp    =  44.60000, taup    =   5.00000

SHAKE:
     ntc     =       2, jfastw  =       0
     tol     =   0.00001

Free energy options:
     icfe    =       1, ifsc    =       0, klambda =       1
     clambda =  0.5626, scalpha =  0.5000, scbeta  = 12.0000
     sceeorder =       2
     dynlmb =  0.0000 logdvdl =       0

Ewald parameters:
     verbose =       0, ew_type =       0, nbflag  =       1, use_pme =       1
     vdwmeth =       1, eedmeth =       1, netfrc  =       1
     Box X =   55.004   Box Y =   55.004   Box Z =   55.004
     Alpha =  109.471   Beta  =  109.471   Gamma =  109.471
     NFFT1 =   56       NFFT2 =   56       NFFT3 =   56
     Cutoff=   10.000   Tol   =0.100E-04
     Ewald Coefficient =  0.27511
     Interpolation order =    4
     TI Mask 1 :1; matches      5 atoms
     TI Mask 2 :2; matches      5 atoms
     TI region 1:   11414 atoms
     TI region 2:   11414 atoms
Removing charge of       1.4352 from atom       6
Removing charge of      -1.1088 from atom       7
Removing charge of      -1.1088 from atom       8
Removing charge of      -1.1088 from atom       9
Removing charge of      -1.1088 from atom      10
Total charge of  -2.99999999 removed from       5 atoms
     Checking for mismatched coordinates.

--------------------------------------------------------------------------------
   3.  ATOMIC COORDINATES AND VELOCITIES
--------------------------------------------------------------------------------

default_name
 begin time read from input coords =   200.000 ps

 Number of triangulated 3-point waters found:     3803

     Sum of charges for TI region  1 =  -2.99999999
     Skip neutralizing charges...

     Sum of charges for TI region  2 =   0.00000000
     Skip neutralizing charges...

--------------------------------------------------------------------------------
   4.  RESULTS
 NSTEP =     1000   TIME(PS) =     202.000  TEMP(K) =   306.20  PRESS = -1374.5
 Etot   =    -28703.1522  EKtot   =      6946.7912  EPtot      =    -35649.9433
 BOND   =         0.1205  ANGLE   =         9.4018  DIHED      =         0.0000
 1-4 NB =         0.0000  1-4 EEL =         0.0000  VDWAALS    =      4932.7737
 EELEC  =    -40592.2394  EHBOND  =         0.0000  RESTRAINT  =         0.0000
 EKCMT  =      3468.9729  VIRIAL  =      7206.8863  VOLUME     =    125948.4287
                                                    Density    =         0.9046
 DV/DL  =       605.2011
 ------------------------------------------------------------------------------

      A V E R A G E S   O V E R    1000 S T E P S

 NSTEP =     1000   TIME(PS) =     202.000  TEMP(K) =   300.04  PRESS =  -951.1
 Etot   =    -28853.0069  EKtot   =      6806.8669  EPtot      =    -35659.8739
 BOND   =         0.9747  ANGLE   =         8.5201  DIHED      =         0.0000
 1-4 NB =         0.0000  1-4 EEL =         0.0000  VDWAALS    =      5221.7820
 EELEC  =    -40891.1506  EHBOND  =         0.0000  RESTRAINT  =         0.0000
 EKCMT  =      3400.8498  VIRIAL  =      6009.3239  VOLUME     =    127019.6300
                                                    Density    =         0.8970
 DV/DL  =       579.0532
 ------------------------------------------------------------------------------

      R M S  F L U C T U A T I O N S

 NSTEP =     1000   TIME(PS) =     202.000  TEMP(K) =     2.67  PRESS =   139.9
 Etot   =        96.6566  EKtot   =        60.6223  EPtot      =        79.7657
 BOND   =         0.5986  ANGLE   =         1.1342  DIHED      =         0.0000
 1-4 NB =         0.0000  1-4 EEL =         0.0000  VDWAALS    =        95.6720
 EELEC  =       152.7052  EHBOND  =         0.0000  RESTRAINT  =         0.0000
 EKCMT  =        36.9240  VIRIAL  =       387.4079  VOLUME     =       609.4504
                                                    Density    =         0.0043
 DV/DL  =        26.9205
 ------------------------------------------------------------------------------

      A V E R A G E S   O V E R    1000 S T E P S

 NSTEP =     1000   TIME(PS) =     202.000  TEMP(K) =   300.04  PRESS =  -951.1
 Etot   =    -28853.0069  EKtot   =      6806.8669  EPtot      =    -35659.8739
 BOND   =         0.9747  ANGLE   =         8.5201  DIHED      =         0.0000
 1-4 NB =         0.0000  1-4 EEL =         0.0000  VDWAALS    =      5221.7820
 EELEC  =    -40891.1506  EHBOND  =         0.0000  RESTRAINT  =         0.0000
 EKCMT  =      3400.8498  VIRIAL  =      6009.3239  VOLUME     =    127019.6300
                                                    Density    =         0.8970
 DV/DL  =       579.0532
 ------------------------------------------------------------------------------

      R M S  F L U C T U A T I O N S

 NSTEP =     1000   TIME(PS) =     202.000  TEMP(K) =     2.67  PRESS =   139.9
 Etot   =        96.6566  EKtot   =        60.6223  EPtot      =        79.7657
 BOND   =         0.5986  ANGLE   =         1.1342  DIHED      =         0.0000
 1-4 NB =         0.0000  1-4 EEL =         0.0000  VDWAALS    =        95.6720
 EELEC  =       152.7052  EHBOND  =         0.0000  RESTRAINT  =         0.0000
 EKCMT  =        36.9240  VIRIAL  =       387.4079  VOLUME     =       609.4504
                                                    Density    =         0.0043
 DV/DL  =        26.9205
 ------------------------------------------------------------------------------

      DV/DL, AVERAGES OVER    1000 STEPS

 NSTEP =     1000   TIME(PS) =     202.000  TEMP(K) =     2.67  PRESS =     0.0
 Etot   =         0.0000  EKtot   =         0.0000  EPtot      =       579.0532
 BOND   =         0.0000  ANGLE   =         0.0000  DIHED      =         0.0000
 1-4 NB =         0.0000  1-4 EEL =         0.0000  VDWAALS    =         0.0000
 EELEC  =       579.0532  EHBOND  =         0.0000  RESTRAINT  =         0.0000
 EKCMT  =         0.0000  VIRIAL  =         0.0000  VOLUME     =         0.0000
                                                    Density    =         0.0000
 DV/DL  =       579.0532
 ------------------------------------------------------------------------------

      A V E R A G E S   O V E R    1000 S T E P S

 NSTEP =     2000   TIME(PS) =     204.000  TEMP(K) =   301.82  PRESS =  -928.6
 Etot   =    -28816.8581  EKtot   =      6847.3738  EPtot      =    -35664.2319
 BOND   =         0.7842  ANGLE   =         7.8198  DIHED      =         0.0000
 1-4 NB =         0.0000  1-4 EEL =         0.0000  VDWAALS    =      5144.0333
 EELEC  =    -40816.8692  EHBOND  =         0.0000  RESTRAINT  =         0.0000
 EKCMT  =      3436.8633  VIRIAL  =      5941.2707  VOLUME     =    124861.1868
                                                    Density    =         0.9125
 DV/DL  =       581.3662
 ------------------------------------------------------------------------------

      R M S  F L U C T U A T I O N S

 NSTEP =     2000   TIME(PS) =     204.000  TEMP(K) =     2.53  PRESS =   169.5
 Etot   =        63.5603  EKtot   =        57.4147  EPtot      =        56.5441
 BOND   =         0.4916  ANGLE   =         1.0176  DIHED      =         0.0000
 1-4 NB =         0.0000  1-4 EEL =         0.0000  VDWAALS    =        88.9798
 EELEC  =       115.5706  EHBOND  =         0.0000  RESTRAINT  =         0.0000
 EKCMT  =        41.2600  VIRIAL  =       461.2741  VOLUME     =       595.9839
                                                    Density    =         0.0044
 DV/DL  =        30.7660
 ------------------------------------------------------------------------------

      A V E R A G E S   O V E R    1000 S T E P S

 NSTEP =     2000   TIME(PS) =     204.000  TEMP(K) =   301.82  PRESS =  -928.6
 Etot   =    -28816.8581  EKtot   =      6847.3738  EPtot      =    -35664.2319
 BOND   =         0.7842  ANGLE   =         7.8198  DIHED      =         0.0000
 1-4 NB =         0.0000  1-4 EEL =         0.0000  VDWAALS    =      5144.0333
 EELEC  =    -40816.8692  EHBOND  =         0.0000  RESTRAINT  =         0.0000
 EKCMT  =      3436.8633  VIRIAL  =      5941.2707  VOLUME     =    124861.1868
                                                    Density    =         0.9125
 DV/DL  =       581.3662
 ------------------------------------------------------------------------------

      R M S  F L U C T U A T I O N S

 NSTEP =     2000   TIME(PS) =     204.000  TEMP(K) =     2.53  PRESS =   169.5
 Etot   =        63.5603  EKtot   =        57.4147  EPtot      =        56.5441
 BOND   =         0.4916  ANGLE   =         1.0176  DIHED      =         0.0000
 1-4 NB =         0.0000  1-4 EEL =         0.0000  VDWAALS    =        88.9798
 EELEC  =       115.5706  EHBOND  =         0.0000  RESTRAINT  =         0.0000
 EKCMT  =        41.2600  VIRIAL  =       461.2741  VOLUME     =       595.9839
                                                    Density    =         0.0044
 DV/DL  =        30.7660
 ------------------------------------------------------------------------------

      DV/DL, AVERAGES OVER    1000 STEPS

 NSTEP =     2000   TIME(PS) =     204.000  TEMP(K) =     2.53  PRESS =     0.0
 Etot   =         0.0000  EKtot   =         0.0000  EPtot      =       581.3662
 BOND   =         0.0000  ANGLE   =         0.0000  DIHED      =         0.0000
 1-4 NB =         0.0000  1-4 EEL =         0.0000  VDWAALS    =         0.0000
 EELEC  =       581.3662  EHBOND  =         0.0000  RESTRAINT  =         0.0000
 EKCMT  =         0.0000  VIRIAL  =         0.0000  VOLUME     =         0.0000
                                                    Density    =         0.0000
 DV/DL  =       581.3662
 ------------------------------------------------------------------------------

      A V E R A G E S   O V E R    1000 S T E P S

 NSTEP =   500000   TIME(PS) =    1200.000  TEMP(K) =   299.10  PRESS =     4.5
 Etot   =    -29654.4705  EKtot   =      6785.5021  EPtot      =    -36439.9725
 BOND   =         2.0280  ANGLE   =         7.5066  DIHED      =         0.0000
 1-4 NB =         0.0000  1-4 EEL =         0.0000  VDWAALS    =      5437.2842
 EELEC  =    -41886.7913  EHBOND  =         0.0000  RESTRAINT  =         0.0000
 EKCMT  =      3397.0831  VIRIAL  =      3385.7703  VOLUME     =    115810.0474
                                                    Density    =         0.9838
 DV/DL  =       540.2141
 ------------------------------------------------------------------------------

      R M S  F L U C T U A T I O N S

 NSTEP =   500000   TIME(PS) =    1200.000  TEMP(K) =     2.58  PRESS =   177.9
 Etot   =        85.4734  EKtot   =        58.4203  EPtot      =        80.3577
 BOND   =         1.1037  ANGLE   =         0.7728  DIHED      =         0.0000
 1-4 NB =         0.0000  1-4 EEL =         0.0000  VDWAALS    =       103.7630
 EELEC  =       160.2577  EHBOND  =         0.0000  RESTRAINT  =         0.0000
 EKCMT  =        44.2283  VIRIAL  =       435.6759  VOLUME     =        21.9618
                                                    Density    =         0.0002
 DV/DL  =        23.0959
 ------------------------------------------------------------------------------

      A V E R A G E S   O V E R    1000 S T E P S

 NSTEP =   500000   TIME(PS) =    1200.000  TEMP(K) =   299.10  PRESS =     4.5
 Etot   =    -29654.4705  EKtot   =      6785.5021  EPtot      =    -36439.9725
 BOND   =         2.0280  ANGLE   =         7.5066  DIHED      =         0.0000
 1-4 NB =         0.0000  1-4 EEL =         0.0000  VDWAALS    =      5437.2842
 EELEC  =    -41886.7913  EHBOND  =         0.0000  RESTRAINT  =         0.0000
 EKCMT  =      3397.0831  VIRIAL  =      3385.7703  VOLUME     =    115810.0474
                                                    Density    =         0.9838
 DV/DL  =       540.2141
 ------------------------------------------------------------------------------

      R M S  F L U C T U A T I O N S

 NSTEP =   500000   TIME(PS) =    1200.000  TEMP(K) =     2.58  PRESS =   177.9
 Etot   =        85.4734  EKtot   =        58.4203  EPtot      =        80.3577
 BOND   =         1.1037  ANGLE   =         0.7728  DIHED      =         0.0000
 1-4 NB =         0.0000  1-4 EEL =         0.0000  VDWAALS    =       103.7630
 EELEC  =       160.2577  EHBOND  =         0.0000  RESTRAINT  =         0.0000
 EKCMT  =        44.2283  VIRIAL  =       435.6759  VOLUME     =        21.9618
                                                    Density    =         0.0002
 DV/DL  =        23.0959
 ------------------------------------------------------------------------------

      DV/DL, AVERAGES OVER    1000 STEPS

 NSTEP =   500000   TIME(PS) =    1200.000  TEMP(K) =     2.58  PRESS =     0.0
 Etot   =         0.0000  EKtot   =         0.0000  EPtot      =       540.2141
 BOND   =         0.0000  ANGLE   =         0.0000  DIHED      =         0.0000
 1-4 NB =         0.0000  1-4 EEL =         0.0000  VDWAALS    =         0.0000
 EELEC  =       540.2141  EHBOND  =         0.0000  RESTRAINT  =         0.0000
 EKCMT  =         0.0000  VIRIAL  =         0.0000  VOLUME     =         0.0000
                                                    Density    =         0.0000
 DV/DL  =       540.2141
 ------------------------------------------------------------------------------

      A V E R A G E S   O V E R  500000 S T E P S

 NSTEP =   500000   TIME(PS) =    1200.000  TEMP(K) =   300.49  PRESS =   -10.3
 Etot   =    -29583.4531  EKtot   =      6817.2483  EPtot      =    -36400.7014
 BOND   =         1.2399  ANGLE   =         7.7474  DIHED      =         0.0000
 1-4 NB =         0.0000  1-4 EEL =         0.0000  VDWAALS    =      5421.0296
 EELEC  =    -41830.7183  EHBOND  =         0.0000  RESTRAINT  =         0.0000
 EKCMT  =      3421.9752  VIRIAL  =      3449.1591  VOLUME     =    115900.0331
                                                    Density    =         0.9831
 DV/DL  =       570.4979
 ------------------------------------------------------------------------------

      R M S  F L U C T U A T I O N S

 NSTEP =   500000   TIME(PS) =    1200.000  TEMP(K) =     2.77  PRESS =   195.5
 Etot   =       123.3249  EKtot   =        62.9316  EPtot      =       106.4101
 BOND   =         0.8915  ANGLE   =         0.9487  DIHED      =         0.0000
 1-4 NB =         0.0000  1-4 EEL =         0.0000  VDWAALS    =        95.2137
 EELEC  =       164.5154  EHBOND  =         0.0000  RESTRAINT  =         0.0000
 EKCMT  =        44.9869  VIRIAL  =       493.6550  VOLUME     =       821.7576
                                                    Density    =         0.0065
 DV/DL  =        27.3224
 ------------------------------------------------------------------------------

      A V E R A G E S   O V E R  500000 S T E P S

 NSTEP =   500000   TIME(PS) =    1200.000  TEMP(K) =   300.49  PRESS =   -10.3
 Etot   =    -29583.4531  EKtot   =      6817.2483  EPtot      =    -36400.7014
 BOND   =         1.2399  ANGLE   =         7.7474  DIHED      =         0.0000
 1-4 NB =         0.0000  1-4 EEL =         0.0000  VDWAALS    =      5421.0296
 EELEC  =    -41830.7183  EHBOND  =         0.0000  RESTRAINT  =         0.0000
 EKCMT  =      3421.9752  VIRIAL  =      3449.1591  VOLUME     =    115900.0331
                                                    Density    =         0.9831
 DV/DL  =       570.4979
 ------------------------------------------------------------------------------

      R M S  F L U C T U A T I O N S

 NSTEP =   500000   TIME(PS) =    1200.000  TEMP(K) =     2.77  PRESS =   195.5
 Etot   =       123.3249  EKtot   =        62.9316  EPtot      =       106.4101
 BOND   =         0.8915  ANGLE   =         0.9487  DIHED      =         0.0000
 1-4 NB =         0.0000  1-4 EEL =         0.0000  VDWAALS    =        95.2137
 EELEC  =       164.5154  EHBOND  =         0.0000  RESTRAINT  =         0.0000
 EKCMT  =        44.9869  VIRIAL  =       493.6550  VOLUME     =       821.7576
                                                    Density    =         0.0065
 DV/DL  =        27.3224
 ------------------------------------------------------------------------------

      DV/DL, AVERAGES OVER  500000 STEPS

 NSTEP =   500000   TIME(PS) =    1200.000  TEMP(K) =     2.77  PRESS =     0.0
 Etot   =         0.0000  EKtot   =         0.0000  EPtot      =       570.4979
 BOND   =         0.0000  ANGLE   =         0.0000  DIHED      =         0.0000
 1-4 NB =         0.0000  1-4 EEL =         0.0000  VDWAALS    =         0.0000
 EELEC  =       570.4979  EHBOND  =         0.0000  RESTRAINT  =         0.0000
 EKCMT  =         0.0000  VIRIAL  =         0.0000  VOLUME     =         0.0000
                                                    Density    =         0.0000
 DV/DL  =       570.4979
 ------------------------------------------------------------------------------
