-------------------------------------------------------
          Amber 20 PMEMD                              2020
          -------------------------------------------------------

  [-O]verwriting output

File Assignments:

 Here is the input file:

 &cntrl
   nstlim=1000000, nscm=1000,
   ntx=1, irest=0, ntpr=1000,
   tempi=300.0, temp0=300.0, ntt=3, gamma_ln=2.0,
   ntb=1, igb=0, cut=10.0,
   dt=0.001, ig=-1,
   ntc=1, ntf=1,
   iwrap=0,
   ntwr=1000, ntwx=50000, ntave=1000,
   ioutfm=1, ntwv=-1,
   ifsc = 1, icfe=1,
   clambda=0.68392,
   timask1=':1',
   timask2=':2',
/

Note: ig = -1. Setting random seed to   407644 based on wallclock time in
      microseconds.

--------------------------------------------------------------------------------
   1.  RESOURCE   USE:
--------------------------------------------------------------------------------

 getting box info from netcdf restart file
 NATOM  =      10 NTYPES =       6 NBONH =       0 MBONA  =       8
 NTHETH =       0 MTHETA =      12 NPHIH =       0 MPHIA  =       0
 NHPARM =       0 NPARM  =       0 NNB   =      22 NRES   =       2
 NBONA  =       8 NTHETA =      12 NPHIA =       0 NUMBND =       1
 NUMANG =       1 NPTRA  =       0 NATYP =       4 NPHB   =       1
 IFBOX  =       2 NMXRS  =       5 IFCAP =       0 NEXTRA =       0
 NCOPY  =       0

     BOX TYPE: TRUNCATED OCTAHEDRON

--------------------------------------------------------------------------------
   2.  CONTROL  DATA  FOR  THE  RUN
--------------------------------------------------------------------------------

default_name

General flags:
     imin    =       0, nmropt  =       0

Nature and format of input:
     ntx     =       1, irest   =       0, ntrx    =       1

Nature and format of output:
     ntxo    =       2, ntpr    =    1000, ntrx    =       1, ntwr    =    1000
     iwrap   =       0, ntwx    =   50000, ntwv    =      -1, ntwe    =       0
     ioutfm  =       1, ntwprt  =       0, idecomp =       0, rbornstat=      0

Potential function:
     ntf     =       1, ntb     =       1, igb     =       0, nsnb    =      25
     ipol    =       0, gbsa    =       0, iesp    =       0
     dielc   =   1.00000, cut     =  10.00000, intdiel =   1.00000

Frozen or restrained atoms:
     ibelly  =       0, ntr     =       0

Molecular dynamics:
     nstlim  =   1000000, nscm    =      1000, nrespa  =         1
     t       =   0.00000, dt      =   0.00100, vlimit  =  -1.00000

Langevin dynamics temperature regulation:
     ig      =  407644
     temp0   = 300.00000, tempi   = 300.00000, gamma_ln=   2.00000

Free energy options:
     icfe    =       1, ifsc    =       1, klambda =       1
     clambda =  0.6839, scalpha =  0.5000, scbeta  = 12.0000
     sceeorder =       2
     dynlmb =  0.0000 logdvdl =       0

Ewald parameters:
     verbose =       0, ew_type =       0, nbflag  =       1, use_pme =       1
     vdwmeth =       1, eedmeth =       1, netfrc  =       1
     Box X =   55.004   Box Y =   55.004   Box Z =   55.004
     Alpha =  109.471   Beta  =  109.471   Gamma =  109.471
     NFFT1 =   56       NFFT2 =   56       NFFT3 =   56
     Cutoff=   10.000   Tol   =0.100E-04
     Ewald Coefficient =  0.27511
     Interpolation order =    4
     TI Mask 1 :1; matches      5 atoms
     TI Mask 2 :2; matches      5 atoms
     TI region 1:       5 atoms
     TI region 2:       5 atoms

--------------------------------------------------------------------------------
   3.  ATOMIC COORDINATES AND VELOCITIES
--------------------------------------------------------------------------------

default_name
 begin time read from input coords =     0.000 ps

 Number of triangulated 3-point waters found:        0
 Number of shake restraints removed in TI region  1 :        0
 Number of shake restraints removed in TI region  2 :        0

     Sum of charges for TI region  1 =  -2.99999999
     Skip neutralizing charges...

     Sum of charges for TI region  2 =   0.00000000
     Skip neutralizing charges...

--------------------------------------------------------------------------------
   4.  RESULTS
 NSTEP =        0   TIME(PS) =       0.000  TEMP(K) =   359.31  PRESS =     0.0
 Etot   =       -15.3986  EKtot   =         5.3552  EPtot      =       -20.7538
 BOND   =         0.0000  ANGLE   =         6.2592  DIHED      =         0.0000
 1-4 NB =         0.0000  1-4 EEL =         0.0000  VDWAALS    =        -0.0001
 EELEC  =       -27.0129  EHBOND  =         0.0000  RESTRAINT  =         0.0000
 DV/DL  =        85.4624
 ------------------------------------------------------------------------------

      A V E R A G E S   O V E R    1000 S T E P S

 NSTEP =     1000   TIME(PS) =       1.000  TEMP(K) =   358.38  PRESS =     0.0
 Etot   =       -12.5991  EKtot   =         5.3413  EPtot      =       -17.9404
 BOND   =         1.4155  ANGLE   =         7.6572  DIHED      =         0.0000
 1-4 NB =         0.0000  1-4 EEL =         0.0000  VDWAALS    =        -0.0001
 EELEC  =       -27.0131  EHBOND  =         0.0000  RESTRAINT  =         0.0000
 DV/DL  =        85.4633
 ------------------------------------------------------------------------------

      R M S  F L U C T U A T I O N S

 NSTEP =     1000   TIME(PS) =       1.000  TEMP(K) =   145.47  PRESS =     0.0
 Etot   =         2.7436  EKtot   =         2.1680  EPtot      =         1.4730
 BOND   =         1.0930  ANGLE   =         0.7629  DIHED      =         0.0000
 1-4 NB =         0.0000  1-4 EEL =         0.0000  VDWAALS    =         0.0000
 EELEC  =         0.0025  EHBOND  =         0.0000  RESTRAINT  =         0.0000
 DV/DL  =         0.0278
 ------------------------------------------------------------------------------

      A V E R A G E S   O V E R    1000 S T E P S

 NSTEP =     1000   TIME(PS) =       1.000  TEMP(K) =   358.14  PRESS =     0.0
 Etot   =       -12.6028  EKtot   =         5.3376  EPtot      =       -17.9404
 BOND   =         1.4155  ANGLE   =         7.6572  DIHED      =         0.0000
 1-4 NB =         0.0000  1-4 EEL =         0.0000  VDWAALS    =        -0.0001
 EELEC  =       -27.0131  EHBOND  =         0.0000  RESTRAINT  =         0.0000
 DV/DL  =        85.4633
 ------------------------------------------------------------------------------

      R M S  F L U C T U A T I O N S

 NSTEP =     1000   TIME(PS) =       1.000  TEMP(K) =   145.41  PRESS =     0.0
 Etot   =         2.7433  EKtot   =         2.1672  EPtot      =         1.4730
 BOND   =         1.0930  ANGLE   =         0.7629  DIHED      =         0.0000
 1-4 NB =         0.0000  1-4 EEL =         0.0000  VDWAALS    =         0.0000
 EELEC  =         0.0025  EHBOND  =         0.0000  RESTRAINT  =         0.0000
 DV/DL  =         0.0278
 ------------------------------------------------------------------------------

      DV/DL, AVERAGES OVER    1000 STEPS

 NSTEP =     1000   TIME(PS) =       1.000  TEMP(K) =   145.41  PRESS =     0.0
 Etot   =         0.0000  EKtot   =         0.0000  EPtot      =        85.4633
 BOND   =         0.0001  ANGLE   =        -0.0000  DIHED      =         0.0000
 1-4 NB =         0.0000  1-4 EEL =         0.0000  VDWAALS    =         0.0003
 EELEC  =        85.4629  EHBOND  =         0.0000  RESTRAINT  =         0.0000
 DV/DL  =        85.4633
 ------------------------------------------------------------------------------

      A V E R A G E S   O V E R    1000 S T E P S

 NSTEP =     2000   TIME(PS) =       2.000  TEMP(K) =   237.86  PRESS =     0.0
 Etot   =       -15.1211  EKtot   =         3.5450  EPtot      =       -18.6661
 BOND   =         0.8641  ANGLE   =         7.4831  DIHED      =         0.0000
 1-4 NB =         0.0000  1-4 EEL =         0.0000  VDWAALS    =        -0.0001
 EELEC  =       -27.0133  EHBOND  =         0.0000  RESTRAINT  =         0.0000
 DV/DL  =        85.4635
 ------------------------------------------------------------------------------

      R M S  F L U C T U A T I O N S

 NSTEP =     2000   TIME(PS) =       2.000  TEMP(K) =    85.33  PRESS =     0.0
 Etot   =         1.4871  EKtot   =         1.2717  EPtot      =         0.9722
 BOND   =         0.5216  ANGLE   =         0.8019  DIHED      =         0.0000
 1-4 NB =         0.0000  1-4 EEL =         0.0000  VDWAALS    =         0.0000
 EELEC  =         0.0032  EHBOND  =         0.0000  RESTRAINT  =         0.0000
 DV/DL  =         0.0230
 ------------------------------------------------------------------------------

      A V E R A G E S   O V E R    1000 S T E P S

 NSTEP =     2000   TIME(PS) =       2.000  TEMP(K) =   238.03  PRESS =     0.0
 Etot   =       -15.1185  EKtot   =         3.5477  EPtot      =       -18.6661
 BOND   =         0.8641  ANGLE   =         7.4831  DIHED      =         0.0000
 1-4 NB =         0.0000  1-4 EEL =         0.0000  VDWAALS    =        -0.0001
 EELEC  =       -27.0133  EHBOND  =         0.0000  RESTRAINT  =         0.0000
 DV/DL  =        85.4635
 ------------------------------------------------------------------------------

      R M S  F L U C T U A T I O N S

 NSTEP =     2000   TIME(PS) =       2.000  TEMP(K) =    85.39  PRESS =     0.0
 Etot   =         1.4888  EKtot   =         1.2727  EPtot      =         0.9722
 BOND   =         0.5216  ANGLE   =         0.8019  DIHED      =         0.0000
 1-4 NB =         0.0000  1-4 EEL =         0.0000  VDWAALS    =         0.0000
 EELEC  =         0.0032  EHBOND  =         0.0000  RESTRAINT  =         0.0000
 DV/DL  =         0.0230
 ------------------------------------------------------------------------------

      DV/DL, AVERAGES OVER    1000 STEPS

 NSTEP =     2000   TIME(PS) =       2.000  TEMP(K) =    85.39  PRESS =     0.0
 Etot   =         0.0000  EKtot   =         0.0000  EPtot      =        85.4635
 BOND   =         0.0002  ANGLE   =        -0.0004  DIHED      =         0.0000
 1-4 NB =         0.0000  1-4 EEL =         0.0000  VDWAALS    =         0.0003
 EELEC  =        85.4634  EHBOND  =         0.0000  RESTRAINT  =         0.0000
 DV/DL  =        85.4635
 ------------------------------------------------------------------------------

      A V E R A G E S   O V E R    1000 S T E P S

 NSTEP =  1000000   TIME(PS) =    1000.000  TEMP(K) =   291.23  PRESS =     0.0
 Etot   =       -13.5171  EKtot   =         4.3405  EPtot      =       -17.8575
 BOND   =         1.0152  ANGLE   =         8.1411  DIHED      =         0.0000
 1-4 NB =         0.0000  1-4 EEL =         0.0000  VDWAALS    =        -0.0001
 EELEC  =       -27.0137  EHBOND  =         0.0000  RESTRAINT  =         0.0000
 DV/DL  =        85.4659
 ------------------------------------------------------------------------------

      R M S  F L U C T U A T I O N S

 NSTEP =  1000000   TIME(PS) =    1000.000  TEMP(K) =    70.23  PRESS =     0.0
 Etot   =         1.1782  EKtot   =         1.0467  EPtot      =         1.0258
 BOND   =         0.5870  ANGLE   =         0.7488  DIHED      =         0.0000
 1-4 NB =         0.0000  1-4 EEL =         0.0000  VDWAALS    =         0.0000
 EELEC  =         0.0033  EHBOND  =         0.0000  RESTRAINT  =         0.0000
 DV/DL  =         0.0241
 ------------------------------------------------------------------------------

      A V E R A G E S   O V E R    1000 S T E P S

 NSTEP =  1000000   TIME(PS) =    1000.000  TEMP(K) =   291.33  PRESS =     0.0
 Etot   =       -13.5156  EKtot   =         4.3419  EPtot      =       -17.8575
 BOND   =         1.0152  ANGLE   =         8.1411  DIHED      =         0.0000
 1-4 NB =         0.0000  1-4 EEL =         0.0000  VDWAALS    =        -0.0001
 EELEC  =       -27.0137  EHBOND  =         0.0000  RESTRAINT  =         0.0000
 DV/DL  =        85.4659
 ------------------------------------------------------------------------------

      R M S  F L U C T U A T I O N S

 NSTEP =  1000000   TIME(PS) =    1000.000  TEMP(K) =    70.13  PRESS =     0.0
 Etot   =         1.1816  EKtot   =         1.0452  EPtot      =         1.0258
 BOND   =         0.5870  ANGLE   =         0.7488  DIHED      =         0.0000
 1-4 NB =         0.0000  1-4 EEL =         0.0000  VDWAALS    =         0.0000
 EELEC  =         0.0033  EHBOND  =         0.0000  RESTRAINT  =         0.0000
 DV/DL  =         0.0241
 ------------------------------------------------------------------------------

      DV/DL, AVERAGES OVER    1000 STEPS

 NSTEP =  1000000   TIME(PS) =    1000.000  TEMP(K) =    70.13  PRESS =     0.0
 Etot   =         0.0000  EKtot   =         0.0000  EPtot      =        85.4659
 BOND   =         0.0006  ANGLE   =         0.0003  DIHED      =         0.0000
 1-4 NB =         0.0000  1-4 EEL =         0.0000  VDWAALS    =         0.0003
 EELEC  =        85.4647  EHBOND  =         0.0000  RESTRAINT  =         0.0000
 DV/DL  =        85.4659
 ------------------------------------------------------------------------------

      A V E R A G E S   O V E R 1000000 S T E P S

 NSTEP =  1000000   TIME(PS) =    1000.000  TEMP(K) =   309.35  PRESS =     0.0
 Etot   =       -13.3312  EKtot   =         4.6105  EPtot      =       -17.9418
 BOND   =         1.2921  ANGLE   =         7.7779  DIHED      =         0.0000
 1-4 NB =         0.0000  1-4 EEL =         0.0000  VDWAALS    =        -0.0001
 EELEC  =       -27.0117  EHBOND  =         0.0000  RESTRAINT  =         0.0000
 DV/DL  =        85.4587
 ------------------------------------------------------------------------------

      R M S  F L U C T U A T I O N S

 NSTEP =  1000000   TIME(PS) =    1000.000  TEMP(K) =   110.92  PRESS =     0.0
 Etot   =         2.1062  EKtot   =         1.6531  EPtot      =         1.3238
 BOND   =         0.9212  ANGLE   =         0.9501  DIHED      =         0.0000
 1-4 NB =         0.0000  1-4 EEL =         0.0000  VDWAALS    =         0.0000
 EELEC  =         0.0035  EHBOND  =         0.0000  RESTRAINT  =         0.0000
 DV/DL  =         0.0277
 ------------------------------------------------------------------------------

      A V E R A G E S   O V E R 1000000 S T E P S

 NSTEP =  1000000   TIME(PS) =    1000.000  TEMP(K) =   309.33  PRESS =     0.0
 Etot   =       -13.3315  EKtot   =         4.6103  EPtot      =       -17.9418
 BOND   =         1.2921  ANGLE   =         7.7779  DIHED      =         0.0000
 1-4 NB =         0.0000  1-4 EEL =         0.0000  VDWAALS    =        -0.0001
 EELEC  =       -27.0117  EHBOND  =         0.0000  RESTRAINT  =         0.0000
 DV/DL  =        85.4587
 ------------------------------------------------------------------------------

      R M S  F L U C T U A T I O N S

 NSTEP =  1000000   TIME(PS) =    1000.000  TEMP(K) =   110.92  PRESS =     0.0
 Etot   =         2.1063  EKtot   =         1.6532  EPtot      =         1.3238
 BOND   =         0.9212  ANGLE   =         0.9501  DIHED      =         0.0000
 1-4 NB =         0.0000  1-4 EEL =         0.0000  VDWAALS    =         0.0000
 EELEC  =         0.0035  EHBOND  =         0.0000  RESTRAINT  =         0.0000
 DV/DL  =         0.0277
 ------------------------------------------------------------------------------

      DV/DL, AVERAGES OVER 1000000 STEPS

 NSTEP =  1000000   TIME(PS) =    1000.000  TEMP(K) =   110.92  PRESS =     0.0
 Etot   =         0.0000  EKtot   =         0.0000  EPtot      =        85.4587
 BOND   =        -0.0000  ANGLE   =        -0.0000  DIHED      =         0.0000
 1-4 NB =         0.0000  1-4 EEL =         0.0000  VDWAALS    =         0.0003
 EELEC  =        85.4585  EHBOND  =         0.0000  RESTRAINT  =         0.0000
 DV/DL  =        85.4587
 ------------------------------------------------------------------------------
