-------------------------------------------------------
          Amber 20 PMEMD                              2020
          -------------------------------------------------------

  [-O]verwriting output

File Assignments:

 Here is the input file:

 &cntrl
   nstlim=500000, nscm=1000,
   ntx=5, irest=1, ntpr=1000,
   tempi=300.0, temp0=300.0, ntt=3, gamma_ln=2.0,
   ntp=1, pres0=1.01325, taup=5.0,
   ntb=2, igb=0, cut=10.0,
   dt=0.002, ig=-1,
   ntc=2, ntf=2,
   iwrap=0,
   ntwr=1000, ntwx=50000, ntave=1000,
   ioutfm=1, ntwv=-1,
   ifsc = 0, icfe=1,
   clambda=0.95206,
   timask1=':1',
   timask2=':2',
/

Note: ig = -1. Setting random seed to   734853 based on wallclock time in
      microseconds.

--------------------------------------------------------------------------------
   1.  RESOURCE   USE:
--------------------------------------------------------------------------------

 getting box info from netcdf restart file
 NATOM  =   11419 NTYPES =       6 NBONH =   11409 MBONA  =       8
 NTHETH =       0 MTHETA =      12 NPHIH =       0 MPHIA  =       0
 NHPARM =       0 NPARM  =       0 NNB   =   15234 NRES   =    3805
 NBONA  =       8 NTHETA =      12 NPHIA =       0 NUMBND =       3
 NUMANG =       1 NPTRA  =       0 NATYP =       4 NPHB   =       1
 IFBOX  =       2 NMXRS  =       5 IFCAP =       0 NEXTRA =       0
 NCOPY  =       0

     BOX TYPE: TRUNCATED OCTAHEDRON

--------------------------------------------------------------------------------
   2.  CONTROL  DATA  FOR  THE  RUN
--------------------------------------------------------------------------------

default_name

General flags:
     imin    =       0, nmropt  =       0

Nature and format of input:
     ntx     =       5, irest   =       1, ntrx    =       1

Nature and format of output:
     ntxo    =       2, ntpr    =    1000, ntrx    =       1, ntwr    =    1000
     iwrap   =       0, ntwx    =   50000, ntwv    =      -1, ntwe    =       0
     ioutfm  =       1, ntwprt  =       0, idecomp =       0, rbornstat=      0

Potential function:
     ntf     =       2, ntb     =       2, igb     =       0, nsnb    =      25
     ipol    =       0, gbsa    =       0, iesp    =       0
     dielc   =   1.00000, cut     =  10.00000, intdiel =   1.00000

Frozen or restrained atoms:
     ibelly  =       0, ntr     =       0

Molecular dynamics:
     nstlim  =    500000, nscm    =      1000, nrespa  =         1
     t       =   0.00000, dt      =   0.00200, vlimit  =  -1.00000

Langevin dynamics temperature regulation:
     ig      =  734853
     temp0   = 300.00000, tempi   = 300.00000, gamma_ln=   2.00000

Pressure regulation:
     ntp     =       1
     pres0   =   1.01325, comp    =  44.60000, taup    =   5.00000

SHAKE:
     ntc     =       2, jfastw  =       0
     tol     =   0.00001

Free energy options:
     icfe    =       1, ifsc    =       0, klambda =       1
     clambda =  0.9521, scalpha =  0.5000, scbeta  = 12.0000
     sceeorder =       2
     dynlmb =  0.0000 logdvdl =       0

Ewald parameters:
     verbose =       0, ew_type =       0, nbflag  =       1, use_pme =       1
     vdwmeth =       1, eedmeth =       1, netfrc  =       1
     Box X =   55.004   Box Y =   55.004   Box Z =   55.004
     Alpha =  109.471   Beta  =  109.471   Gamma =  109.471
     NFFT1 =   56       NFFT2 =   56       NFFT3 =   56
     Cutoff=   10.000   Tol   =0.100E-04
     Ewald Coefficient =  0.27511
     Interpolation order =    4
     TI Mask 1 :1; matches      5 atoms
     TI Mask 2 :2; matches      5 atoms
     TI region 1:   11414 atoms
     TI region 2:   11414 atoms
     Checking for mismatched coordinates.

--------------------------------------------------------------------------------
   3.  ATOMIC COORDINATES AND VELOCITIES
--------------------------------------------------------------------------------

default_name
 begin time read from input coords =   200.000 ps

 Number of triangulated 3-point waters found:     3803

     Sum of charges for TI region  1 =  -2.99999999
     Skip neutralizing charges...

     Sum of charges for TI region  2 =   0.00000000
     Skip neutralizing charges...

--------------------------------------------------------------------------------
   4.  RESULTS
 NSTEP =     1000   TIME(PS) =     202.000  TEMP(K) =   303.53  PRESS =  -860.5
 Etot   =    -28827.3685  EKtot   =      6886.0415  EPtot      =    -35713.4100
 BOND   =         3.3700  ANGLE   =         6.8992  DIHED      =         0.0000
 1-4 NB =         0.0000  1-4 EEL =         0.0000  VDWAALS    =      5248.6255
 EELEC  =    -40972.3046  EHBOND  =         0.0000  RESTRAINT  =         0.0000
 EKCMT  =      3420.8510  VIRIAL  =      5760.7978  VOLUME     =    125940.3410
                                                    Density    =         0.9046
 DV/DL  =        76.5632
 ------------------------------------------------------------------------------

      A V E R A G E S   O V E R    1000 S T E P S

 NSTEP =     1000   TIME(PS) =     202.000  TEMP(K) =   300.77  PRESS =  -954.2
 Etot   =    -28707.8637  EKtot   =      6823.3949  EPtot      =    -35531.2586
 BOND   =         1.3693  ANGLE   =         7.7455  DIHED      =         0.0000
 1-4 NB =         0.0000  1-4 EEL =         0.0000  VDWAALS    =      5168.5596
 EELEC  =    -40708.9330  EHBOND  =         0.0000  RESTRAINT  =         0.0000
 EKCMT  =      3417.3894  VIRIAL  =      6034.2550  VOLUME     =    126966.5531
                                                    Density    =         0.8974
 DV/DL  =       147.0536
 ------------------------------------------------------------------------------

      R M S  F L U C T U A T I O N S

 NSTEP =     1000   TIME(PS) =     202.000  TEMP(K) =     2.44  PRESS =   181.9
 Etot   =        99.0946  EKtot   =        55.4168  EPtot      =       110.2612
 BOND   =         0.8587  ANGLE   =         0.8293  DIHED      =         0.0000
 1-4 NB =         0.0000  1-4 EEL =         0.0000  VDWAALS    =       114.3614
 EELEC  =       199.5175  EHBOND  =         0.0000  RESTRAINT  =         0.0000
 EKCMT  =        44.8946  VIRIAL  =       494.7073  VOLUME     =       648.2566
                                                    Density    =         0.0046
 DV/DL  =        26.0223
 ------------------------------------------------------------------------------

      A V E R A G E S   O V E R    1000 S T E P S

 NSTEP =     1000   TIME(PS) =     202.000  TEMP(K) =   300.77  PRESS =  -954.2
 Etot   =    -28707.8637  EKtot   =      6823.3949  EPtot      =    -35531.2586
 BOND   =         1.3693  ANGLE   =         7.7455  DIHED      =         0.0000
 1-4 NB =         0.0000  1-4 EEL =         0.0000  VDWAALS    =      5168.5596
 EELEC  =    -40708.9330  EHBOND  =         0.0000  RESTRAINT  =         0.0000
 EKCMT  =      3417.3894  VIRIAL  =      6034.2550  VOLUME     =    126966.5531
                                                    Density    =         0.8974
 DV/DL  =       147.0536
 ------------------------------------------------------------------------------

      R M S  F L U C T U A T I O N S

 NSTEP =     1000   TIME(PS) =     202.000  TEMP(K) =     2.44  PRESS =   181.9
 Etot   =        99.0946  EKtot   =        55.4168  EPtot      =       110.2612
 BOND   =         0.8587  ANGLE   =         0.8293  DIHED      =         0.0000
 1-4 NB =         0.0000  1-4 EEL =         0.0000  VDWAALS    =       114.3614
 EELEC  =       199.5175  EHBOND  =         0.0000  RESTRAINT  =         0.0000
 EKCMT  =        44.8946  VIRIAL  =       494.7073  VOLUME     =       648.2566
                                                    Density    =         0.0046
 DV/DL  =        26.0223
 ------------------------------------------------------------------------------

      DV/DL, AVERAGES OVER    1000 STEPS

 NSTEP =     1000   TIME(PS) =     202.000  TEMP(K) =     2.44  PRESS =     0.0
 Etot   =         0.0000  EKtot   =         0.0000  EPtot      =       147.0536
 BOND   =         0.0000  ANGLE   =         0.0000  DIHED      =         0.0000
 1-4 NB =         0.0000  1-4 EEL =         0.0000  VDWAALS    =       -12.5469
 EELEC  =       159.6005  EHBOND  =         0.0000  RESTRAINT  =         0.0000
 EKCMT  =         0.0000  VIRIAL  =         0.0000  VOLUME     =         0.0000
                                                    Density    =         0.0000
 DV/DL  =       147.0536
 ------------------------------------------------------------------------------

      A V E R A G E S   O V E R    1000 S T E P S

 NSTEP =     2000   TIME(PS) =     204.000  TEMP(K) =   299.57  PRESS =  -856.7
 Etot   =    -28907.8830  EKtot   =      6796.2711  EPtot      =    -35704.1541
 BOND   =         1.4418  ANGLE   =         7.5411  DIHED      =         0.0000
 1-4 NB =         0.0000  1-4 EEL =         0.0000  VDWAALS    =      5230.6705
 EELEC  =    -40943.8075  EHBOND  =         0.0000  RESTRAINT  =         0.0000
 EKCMT  =      3399.8714  VIRIAL  =      5711.7693  VOLUME     =    124935.0448
                                                    Density    =         0.9119
 DV/DL  =       140.6553
 ------------------------------------------------------------------------------

      R M S  F L U C T U A T I O N S

 NSTEP =     2000   TIME(PS) =     204.000  TEMP(K) =     2.51  PRESS =   160.4
 Etot   =        91.6146  EKtot   =        56.9702  EPtot      =        82.3405
 BOND   =         0.9000  ANGLE   =         0.7420  DIHED      =         0.0000
 1-4 NB =         0.0000  1-4 EEL =         0.0000  VDWAALS    =        86.3698
 EELEC  =       141.3533  EHBOND  =         0.0000  RESTRAINT  =         0.0000
 EKCMT  =        40.7775  VIRIAL  =       424.8829  VOLUME     =       554.7554
                                                    Density    =         0.0040
 DV/DL  =        29.1416
 ------------------------------------------------------------------------------

      A V E R A G E S   O V E R    1000 S T E P S

 NSTEP =     2000   TIME(PS) =     204.000  TEMP(K) =   299.57  PRESS =  -856.7
 Etot   =    -28907.8830  EKtot   =      6796.2711  EPtot      =    -35704.1541
 BOND   =         1.4418  ANGLE   =         7.5411  DIHED      =         0.0000
 1-4 NB =         0.0000  1-4 EEL =         0.0000  VDWAALS    =      5230.6705
 EELEC  =    -40943.8075  EHBOND  =         0.0000  RESTRAINT  =         0.0000
 EKCMT  =      3399.8714  VIRIAL  =      5711.7693  VOLUME     =    124935.0448
                                                    Density    =         0.9119
 DV/DL  =       140.6553
 ------------------------------------------------------------------------------

      R M S  F L U C T U A T I O N S

 NSTEP =     2000   TIME(PS) =     204.000  TEMP(K) =     2.51  PRESS =   160.4
 Etot   =        91.6146  EKtot   =        56.9702  EPtot      =        82.3405
 BOND   =         0.9000  ANGLE   =         0.7420  DIHED      =         0.0000
 1-4 NB =         0.0000  1-4 EEL =         0.0000  VDWAALS    =        86.3698
 EELEC  =       141.3533  EHBOND  =         0.0000  RESTRAINT  =         0.0000
 EKCMT  =        40.7775  VIRIAL  =       424.8829  VOLUME     =       554.7554
                                                    Density    =         0.0040
 DV/DL  =        29.1416
 ------------------------------------------------------------------------------

      DV/DL, AVERAGES OVER    1000 STEPS

 NSTEP =     2000   TIME(PS) =     204.000  TEMP(K) =     2.51  PRESS =     0.0
 Etot   =         0.0000  EKtot   =         0.0000  EPtot      =       140.6553
 BOND   =         0.0000  ANGLE   =         0.0000  DIHED      =         0.0000
 1-4 NB =         0.0000  1-4 EEL =         0.0000  VDWAALS    =       -11.4461
 EELEC  =       152.1015  EHBOND  =         0.0000  RESTRAINT  =         0.0000
 EKCMT  =         0.0000  VIRIAL  =         0.0000  VOLUME     =         0.0000
                                                    Density    =         0.0000
 DV/DL  =       140.6553
 ------------------------------------------------------------------------------

      A V E R A G E S   O V E R    1000 S T E P S

 NSTEP =   500000   TIME(PS) =    1200.000  TEMP(K) =   301.49  PRESS =     9.9
 Etot   =    -29413.8786  EKtot   =      6839.7603  EPtot      =    -36253.6390
 BOND   =         1.3977  ANGLE   =         8.7031  DIHED      =         0.0000
 1-4 NB =         0.0000  1-4 EEL =         0.0000  VDWAALS    =      5422.0555
 EELEC  =    -41685.7952  EHBOND  =         0.0000  RESTRAINT  =         0.0000
 EKCMT  =      3424.5640  VIRIAL  =      3399.9391  VOLUME     =    115724.6508
                                                    Density    =         0.9845
 DV/DL  =       142.5645
 ------------------------------------------------------------------------------

      R M S  F L U C T U A T I O N S

 NSTEP =   500000   TIME(PS) =    1200.000  TEMP(K) =     2.35  PRESS =   182.2
 Etot   =        36.9429  EKtot   =        53.3845  EPtot      =        49.8156
 BOND   =         0.9015  ANGLE   =         1.2743  DIHED      =         0.0000
 1-4 NB =         0.0000  1-4 EEL =         0.0000  VDWAALS    =        93.6321
 EELEC  =       107.9528  EHBOND  =         0.0000  RESTRAINT  =         0.0000
 EKCMT  =        38.1022  VIRIAL  =       447.2600  VOLUME     =        25.8226
                                                    Density    =         0.0002
 DV/DL  =        26.8664
 ------------------------------------------------------------------------------

      A V E R A G E S   O V E R    1000 S T E P S

 NSTEP =   500000   TIME(PS) =    1200.000  TEMP(K) =   301.49  PRESS =     9.9
 Etot   =    -29413.8786  EKtot   =      6839.7603  EPtot      =    -36253.6390
 BOND   =         1.3977  ANGLE   =         8.7031  DIHED      =         0.0000
 1-4 NB =         0.0000  1-4 EEL =         0.0000  VDWAALS    =      5422.0555
 EELEC  =    -41685.7952  EHBOND  =         0.0000  RESTRAINT  =         0.0000
 EKCMT  =      3424.5640  VIRIAL  =      3399.9391  VOLUME     =    115724.6508
                                                    Density    =         0.9845
 DV/DL  =       142.5645
 ------------------------------------------------------------------------------

      R M S  F L U C T U A T I O N S

 NSTEP =   500000   TIME(PS) =    1200.000  TEMP(K) =     2.35  PRESS =   182.2
 Etot   =        36.9429  EKtot   =        53.3845  EPtot      =        49.8156
 BOND   =         0.9015  ANGLE   =         1.2743  DIHED      =         0.0000
 1-4 NB =         0.0000  1-4 EEL =         0.0000  VDWAALS    =        93.6321
 EELEC  =       107.9528  EHBOND  =         0.0000  RESTRAINT  =         0.0000
 EKCMT  =        38.1022  VIRIAL  =       447.2600  VOLUME     =        25.8226
                                                    Density    =         0.0002
 DV/DL  =        26.8664
 ------------------------------------------------------------------------------

      DV/DL, AVERAGES OVER    1000 STEPS

 NSTEP =   500000   TIME(PS) =    1200.000  TEMP(K) =     2.35  PRESS =     0.0
 Etot   =         0.0000  EKtot   =         0.0000  EPtot      =       142.5645
 BOND   =         0.0000  ANGLE   =         0.0000  DIHED      =         0.0000
 1-4 NB =         0.0000  1-4 EEL =         0.0000  VDWAALS    =       -20.0290
 EELEC  =       162.5934  EHBOND  =         0.0000  RESTRAINT  =         0.0000
 EKCMT  =         0.0000  VIRIAL  =         0.0000  VOLUME     =         0.0000
                                                    Density    =         0.0000
 DV/DL  =       142.5645
 ------------------------------------------------------------------------------

      A V E R A G E S   O V E R  500000 S T E P S

 NSTEP =   500000   TIME(PS) =    1200.000  TEMP(K) =   300.00  PRESS =   -10.4
 Etot   =    -29465.1253  EKtot   =      6806.0493  EPtot      =    -36271.1746
 BOND   =         1.2264  ANGLE   =         7.7892  DIHED      =         0.0000
 1-4 NB =         0.0000  1-4 EEL =         0.0000  VDWAALS    =      5428.5061
 EELEC  =    -41708.6963  EHBOND  =         0.0000  RESTRAINT  =         0.0000
 EKCMT  =      3413.5810  VIRIAL  =      3440.9363  VOLUME     =    115901.6682
                                                    Density    =         0.9830
 DV/DL  =       154.3177
 ------------------------------------------------------------------------------

      R M S  F L U C T U A T I O N S

 NSTEP =   500000   TIME(PS) =    1200.000  TEMP(K) =     2.79  PRESS =   194.0
 Etot   =       120.2969  EKtot   =        63.3237  EPtot      =       102.3633
 BOND   =         0.8753  ANGLE   =         0.9808  DIHED      =         0.0000
 1-4 NB =         0.0000  1-4 EEL =         0.0000  VDWAALS    =        93.7730
 EELEC  =       158.8427  EHBOND  =         0.0000  RESTRAINT  =         0.0000
 EKCMT  =        44.8664  VIRIAL  =       489.9158  VOLUME     =       837.2956
                                                    Density    =         0.0066
 DV/DL  =        29.9122
 ------------------------------------------------------------------------------

      A V E R A G E S   O V E R  500000 S T E P S

 NSTEP =   500000   TIME(PS) =    1200.000  TEMP(K) =   300.00  PRESS =   -10.4
 Etot   =    -29465.1253  EKtot   =      6806.0493  EPtot      =    -36271.1746
 BOND   =         1.2264  ANGLE   =         7.7892  DIHED      =         0.0000
 1-4 NB =         0.0000  1-4 EEL =         0.0000  VDWAALS    =      5428.5061
 EELEC  =    -41708.6963  EHBOND  =         0.0000  RESTRAINT  =         0.0000
 EKCMT  =      3413.5810  VIRIAL  =      3440.9363  VOLUME     =    115901.6682
                                                    Density    =         0.9830
 DV/DL  =       154.3177
 ------------------------------------------------------------------------------

      R M S  F L U C T U A T I O N S

 NSTEP =   500000   TIME(PS) =    1200.000  TEMP(K) =     2.79  PRESS =   194.0
 Etot   =       120.2969  EKtot   =        63.3237  EPtot      =       102.3633
 BOND   =         0.8753  ANGLE   =         0.9808  DIHED      =         0.0000
 1-4 NB =         0.0000  1-4 EEL =         0.0000  VDWAALS    =        93.7730
 EELEC  =       158.8427  EHBOND  =         0.0000  RESTRAINT  =         0.0000
 EKCMT  =        44.8664  VIRIAL  =       489.9158  VOLUME     =       837.2956
                                                    Density    =         0.0066
 DV/DL  =        29.9122
 ------------------------------------------------------------------------------

      DV/DL, AVERAGES OVER  500000 STEPS

 NSTEP =   500000   TIME(PS) =    1200.000  TEMP(K) =     2.79  PRESS =     0.0
 Etot   =         0.0000  EKtot   =         0.0000  EPtot      =       154.3177
 BOND   =         0.0000  ANGLE   =         0.0000  DIHED      =         0.0000
 1-4 NB =         0.0000  1-4 EEL =         0.0000  VDWAALS    =       -15.5000
 EELEC  =       169.8177  EHBOND  =         0.0000  RESTRAINT  =         0.0000
 EKCMT  =         0.0000  VIRIAL  =         0.0000  VOLUME     =         0.0000
                                                    Density    =         0.0000
 DV/DL  =       154.3177
 ------------------------------------------------------------------------------
