-------------------------------------------------------
          Amber 20 PMEMD                              2020
          -------------------------------------------------------

  [-O]verwriting output

File Assignments:

 Here is the input file:

 &cntrl
   nstlim=1000000, nscm=1000,
   ntx=1, irest=0, ntpr=1000,
   tempi=300.0, temp0=300.0, ntt=3, gamma_ln=2.0,
   ntb=1, igb=0, cut=10.0,
   dt=0.001, ig=-1,
   ntc=1, ntf=1,
   iwrap=0,
   ntwr=1000, ntwx=50000, ntave=1000,
   ioutfm=1, ntwv=-1,
   ifsc = 1, icfe=1,
   clambda=0.20634,
   timask1=':1',
   timask2=':2',
/

Note: ig = -1. Setting random seed to   304445 based on wallclock time in
      microseconds.

--------------------------------------------------------------------------------
   1.  RESOURCE   USE:
--------------------------------------------------------------------------------

 getting box info from netcdf restart file
 NATOM  =      10 NTYPES =       6 NBONH =       0 MBONA  =       8
 NTHETH =       0 MTHETA =      12 NPHIH =       0 MPHIA  =       0
 NHPARM =       0 NPARM  =       0 NNB   =      22 NRES   =       2
 NBONA  =       8 NTHETA =      12 NPHIA =       0 NUMBND =       1
 NUMANG =       1 NPTRA  =       0 NATYP =       4 NPHB   =       1
 IFBOX  =       2 NMXRS  =       5 IFCAP =       0 NEXTRA =       0
 NCOPY  =       0

     BOX TYPE: TRUNCATED OCTAHEDRON

--------------------------------------------------------------------------------
   2.  CONTROL  DATA  FOR  THE  RUN
--------------------------------------------------------------------------------

default_name

General flags:
     imin    =       0, nmropt  =       0

Nature and format of input:
     ntx     =       1, irest   =       0, ntrx    =       1

Nature and format of output:
     ntxo    =       2, ntpr    =    1000, ntrx    =       1, ntwr    =    1000
     iwrap   =       0, ntwx    =   50000, ntwv    =      -1, ntwe    =       0
     ioutfm  =       1, ntwprt  =       0, idecomp =       0, rbornstat=      0

Potential function:
     ntf     =       1, ntb     =       1, igb     =       0, nsnb    =      25
     ipol    =       0, gbsa    =       0, iesp    =       0
     dielc   =   1.00000, cut     =  10.00000, intdiel =   1.00000

Frozen or restrained atoms:
     ibelly  =       0, ntr     =       0

Molecular dynamics:
     nstlim  =   1000000, nscm    =      1000, nrespa  =         1
     t       =   0.00000, dt      =   0.00100, vlimit  =  -1.00000

Langevin dynamics temperature regulation:
     ig      =  304445
     temp0   = 300.00000, tempi   = 300.00000, gamma_ln=   2.00000

Free energy options:
     icfe    =       1, ifsc    =       1, klambda =       1
     clambda =  0.2063, scalpha =  0.5000, scbeta  = 12.0000
     sceeorder =       2
     dynlmb =  0.0000 logdvdl =       0

Ewald parameters:
     verbose =       0, ew_type =       0, nbflag  =       1, use_pme =       1
     vdwmeth =       1, eedmeth =       1, netfrc  =       1
     Box X =   55.004   Box Y =   55.004   Box Z =   55.004
     Alpha =  109.471   Beta  =  109.471   Gamma =  109.471
     NFFT1 =   56       NFFT2 =   56       NFFT3 =   56
     Cutoff=   10.000   Tol   =0.100E-04
     Ewald Coefficient =  0.27511
     Interpolation order =    4
     TI Mask 1 :1; matches      5 atoms
     TI Mask 2 :2; matches      5 atoms
     TI region 1:       5 atoms
     TI region 2:       5 atoms

--------------------------------------------------------------------------------
   3.  ATOMIC COORDINATES AND VELOCITIES
--------------------------------------------------------------------------------

default_name
 begin time read from input coords =     0.000 ps

 Number of triangulated 3-point waters found:        0
 Number of shake restraints removed in TI region  1 :        0
 Number of shake restraints removed in TI region  2 :        0

     Sum of charges for TI region  1 =  -2.99999999
     Skip neutralizing charges...

     Sum of charges for TI region  2 =   0.00000000
     Skip neutralizing charges...

--------------------------------------------------------------------------------
   4.  RESULTS
 NSTEP =        0   TIME(PS) =       0.000  TEMP(K) =   227.72  PRESS =     0.0
 Etot   =       -58.1749  EKtot   =         3.3940  EPtot      =       -61.5688
 BOND   =         0.0000  ANGLE   =         6.2592  DIHED      =         0.0000
 1-4 NB =         0.0000  1-4 EEL =         0.0000  VDWAALS    =        -0.0002
 EELEC  =       -67.8278  EHBOND  =         0.0000  RESTRAINT  =         0.0000
 DV/DL  =        85.4624
 ------------------------------------------------------------------------------

      A V E R A G E S   O V E R    1000 S T E P S

 NSTEP =     1000   TIME(PS) =       1.000  TEMP(K) =   183.45  PRESS =     0.0
 Etot   =       -57.3993  EKtot   =         2.7341  EPtot      =       -60.1334
 BOND   =         0.6571  ANGLE   =         7.0363  DIHED      =         0.0000
 1-4 NB =         0.0000  1-4 EEL =         0.0000  VDWAALS    =        -0.0002
 EELEC  =       -67.8265  EHBOND  =         0.0000  RESTRAINT  =         0.0000
 DV/DL  =        85.4605
 ------------------------------------------------------------------------------

      R M S  F L U C T U A T I O N S

 NSTEP =     1000   TIME(PS) =       1.000  TEMP(K) =    46.77  PRESS =     0.0
 Etot   =         0.9324  EKtot   =         0.6971  EPtot      =         0.6874
 BOND   =         0.4142  ANGLE   =         0.5402  DIHED      =         0.0000
 1-4 NB =         0.0000  1-4 EEL =         0.0000  VDWAALS    =         0.0000
 EELEC  =         0.0053  EHBOND  =         0.0000  RESTRAINT  =         0.0000
 DV/DL  =         0.0198
 ------------------------------------------------------------------------------

      A V E R A G E S   O V E R    1000 S T E P S

 NSTEP =     1000   TIME(PS) =       1.000  TEMP(K) =   183.34  PRESS =     0.0
 Etot   =       -57.4010  EKtot   =         2.7324  EPtot      =       -60.1334
 BOND   =         0.6571  ANGLE   =         7.0363  DIHED      =         0.0000
 1-4 NB =         0.0000  1-4 EEL =         0.0000  VDWAALS    =        -0.0002
 EELEC  =       -67.8265  EHBOND  =         0.0000  RESTRAINT  =         0.0000
 DV/DL  =        85.4605
 ------------------------------------------------------------------------------

      R M S  F L U C T U A T I O N S

 NSTEP =     1000   TIME(PS) =       1.000  TEMP(K) =    46.69  PRESS =     0.0
 Etot   =         0.9336  EKtot   =         0.6959  EPtot      =         0.6874
 BOND   =         0.4142  ANGLE   =         0.5402  DIHED      =         0.0000
 1-4 NB =         0.0000  1-4 EEL =         0.0000  VDWAALS    =         0.0000
 EELEC  =         0.0053  EHBOND  =         0.0000  RESTRAINT  =         0.0000
 DV/DL  =         0.0198
 ------------------------------------------------------------------------------

      DV/DL, AVERAGES OVER    1000 STEPS

 NSTEP =     1000   TIME(PS) =       1.000  TEMP(K) =    46.69  PRESS =     0.0
 Etot   =         0.0000  EKtot   =         0.0000  EPtot      =        85.4605
 BOND   =        -0.0003  ANGLE   =         0.0002  DIHED      =         0.0000
 1-4 NB =         0.0000  1-4 EEL =         0.0000  VDWAALS    =         0.0003
 EELEC  =        85.4604  EHBOND  =         0.0000  RESTRAINT  =         0.0000
 DV/DL  =        85.4605
 ------------------------------------------------------------------------------

      A V E R A G E S   O V E R    1000 S T E P S

 NSTEP =     2000   TIME(PS) =       2.000  TEMP(K) =   326.70  PRESS =     0.0
 Etot   =       -53.1491  EKtot   =         4.8691  EPtot      =       -58.0182
 BOND   =         1.8438  ANGLE   =         7.9629  DIHED      =         0.0000
 1-4 NB =         0.0000  1-4 EEL =         0.0000  VDWAALS    =        -0.0002
 EELEC  =       -67.8246  EHBOND  =         0.0000  RESTRAINT  =         0.0000
 DV/DL  =        85.4585
 ------------------------------------------------------------------------------

      R M S  F L U C T U A T I O N S

 NSTEP =     2000   TIME(PS) =       2.000  TEMP(K) =   106.60  PRESS =     0.0
 Etot   =         1.8564  EKtot   =         1.5887  EPtot      =         1.4144
 BOND   =         1.0743  ANGLE   =         0.8571  DIHED      =         0.0000
 1-4 NB =         0.0000  1-4 EEL =         0.0000  VDWAALS    =         0.0000
 EELEC  =         0.0087  EHBOND  =         0.0000  RESTRAINT  =         0.0000
 DV/DL  =         0.0308
 ------------------------------------------------------------------------------

      A V E R A G E S   O V E R    1000 S T E P S

 NSTEP =     2000   TIME(PS) =       2.000  TEMP(K) =   326.84  PRESS =     0.0
 Etot   =       -53.1470  EKtot   =         4.8712  EPtot      =       -58.0182
 BOND   =         1.8438  ANGLE   =         7.9629  DIHED      =         0.0000
 1-4 NB =         0.0000  1-4 EEL =         0.0000  VDWAALS    =        -0.0002
 EELEC  =       -67.8246  EHBOND  =         0.0000  RESTRAINT  =         0.0000
 DV/DL  =        85.4585
 ------------------------------------------------------------------------------

      R M S  F L U C T U A T I O N S

 NSTEP =     2000   TIME(PS) =       2.000  TEMP(K) =   106.63  PRESS =     0.0
 Etot   =         1.8605  EKtot   =         1.5892  EPtot      =         1.4144
 BOND   =         1.0743  ANGLE   =         0.8571  DIHED      =         0.0000
 1-4 NB =         0.0000  1-4 EEL =         0.0000  VDWAALS    =         0.0000
 EELEC  =         0.0087  EHBOND  =         0.0000  RESTRAINT  =         0.0000
 DV/DL  =         0.0308
 ------------------------------------------------------------------------------

      DV/DL, AVERAGES OVER    1000 STEPS

 NSTEP =     2000   TIME(PS) =       2.000  TEMP(K) =   106.63  PRESS =     0.0
 Etot   =         0.0000  EKtot   =         0.0000  EPtot      =        85.4585
 BOND   =         0.0008  ANGLE   =        -0.0007  DIHED      =         0.0000
 1-4 NB =         0.0000  1-4 EEL =         0.0000  VDWAALS    =         0.0003
 EELEC  =        85.4580  EHBOND  =         0.0000  RESTRAINT  =         0.0000
 DV/DL  =        85.4585
 ------------------------------------------------------------------------------

      A V E R A G E S   O V E R    1000 S T E P S

 NSTEP =  1000000   TIME(PS) =    1000.000  TEMP(K) =   244.88  PRESS =     0.0
 Etot   =       -56.2470  EKtot   =         3.6496  EPtot      =       -59.8966
 BOND   =         0.8689  ANGLE   =         7.0585  DIHED      =         0.0000
 1-4 NB =         0.0000  1-4 EEL =         0.0000  VDWAALS    =        -0.0002
 EELEC  =       -67.8237  EHBOND  =         0.0000  RESTRAINT  =         0.0000
 DV/DL  =        85.4569
 ------------------------------------------------------------------------------

      R M S  F L U C T U A T I O N S

 NSTEP =  1000000   TIME(PS) =    1000.000  TEMP(K) =    70.50  PRESS =     0.0
 Etot   =         1.2045  EKtot   =         1.0508  EPtot      =         0.7980
 BOND   =         0.6118  ANGLE   =         0.4551  DIHED      =         0.0000
 1-4 NB =         0.0000  1-4 EEL =         0.0000  VDWAALS    =         0.0000
 EELEC  =         0.0100  EHBOND  =         0.0000  RESTRAINT  =         0.0000
 DV/DL  =         0.0222
 ------------------------------------------------------------------------------

      A V E R A G E S   O V E R    1000 S T E P S

 NSTEP =  1000000   TIME(PS) =    1000.000  TEMP(K) =   244.95  PRESS =     0.0
 Etot   =       -56.2458  EKtot   =         3.6507  EPtot      =       -59.8966
 BOND   =         0.8689  ANGLE   =         7.0585  DIHED      =         0.0000
 1-4 NB =         0.0000  1-4 EEL =         0.0000  VDWAALS    =        -0.0002
 EELEC  =       -67.8237  EHBOND  =         0.0000  RESTRAINT  =         0.0000
 DV/DL  =        85.4569
 ------------------------------------------------------------------------------

      R M S  F L U C T U A T I O N S

 NSTEP =  1000000   TIME(PS) =    1000.000  TEMP(K) =    71.04  PRESS =     0.0
 Etot   =         1.2090  EKtot   =         1.0588  EPtot      =         0.7980
 BOND   =         0.6118  ANGLE   =         0.4551  DIHED      =         0.0000
 1-4 NB =         0.0000  1-4 EEL =         0.0000  VDWAALS    =         0.0000
 EELEC  =         0.0100  EHBOND  =         0.0000  RESTRAINT  =         0.0000
 DV/DL  =         0.0222
 ------------------------------------------------------------------------------

      DV/DL, AVERAGES OVER    1000 STEPS

 NSTEP =  1000000   TIME(PS) =    1000.000  TEMP(K) =    71.04  PRESS =     0.0
 Etot   =         0.0000  EKtot   =         0.0000  EPtot      =        85.4569
 BOND   =         0.0003  ANGLE   =        -0.0006  DIHED      =         0.0000
 1-4 NB =         0.0000  1-4 EEL =         0.0000  VDWAALS    =         0.0003
 EELEC  =        85.4569  EHBOND  =         0.0000  RESTRAINT  =         0.0000
 DV/DL  =        85.4569
 ------------------------------------------------------------------------------

      A V E R A G E S   O V E R 1000000 S T E P S

 NSTEP =  1000000   TIME(PS) =    1000.000  TEMP(K) =   304.38  PRESS =     0.0
 Etot   =       -54.3123  EKtot   =         4.5364  EPtot      =       -58.8487
 BOND   =         1.2353  ANGLE   =         7.7413  DIHED      =         0.0000
 1-4 NB =         0.0000  1-4 EEL =         0.0000  VDWAALS    =        -0.0002
 EELEC  =       -67.8252  EHBOND  =         0.0000  RESTRAINT  =         0.0000
 DV/DL  =        85.4590
 ------------------------------------------------------------------------------

      R M S  F L U C T U A T I O N S

 NSTEP =  1000000   TIME(PS) =    1000.000  TEMP(K) =   112.04  PRESS =     0.0
 Etot   =         2.1055  EKtot   =         1.6699  EPtot      =         1.2787
 BOND   =         0.8592  ANGLE   =         0.9540  DIHED      =         0.0000
 1-4 NB =         0.0000  1-4 EEL =         0.0000  VDWAALS    =         0.0000
 EELEC  =         0.0088  EHBOND  =         0.0000  RESTRAINT  =         0.0000
 DV/DL  =         0.0272
 ------------------------------------------------------------------------------

      A V E R A G E S   O V E R 1000000 S T E P S

 NSTEP =  1000000   TIME(PS) =    1000.000  TEMP(K) =   304.37  PRESS =     0.0
 Etot   =       -54.3123  EKtot   =         4.5364  EPtot      =       -58.8487
 BOND   =         1.2353  ANGLE   =         7.7413  DIHED      =         0.0000
 1-4 NB =         0.0000  1-4 EEL =         0.0000  VDWAALS    =        -0.0002
 EELEC  =       -67.8252  EHBOND  =         0.0000  RESTRAINT  =         0.0000
 DV/DL  =        85.4590
 ------------------------------------------------------------------------------

      R M S  F L U C T U A T I O N S

 NSTEP =  1000000   TIME(PS) =    1000.000  TEMP(K) =   112.04  PRESS =     0.0
 Etot   =         2.1055  EKtot   =         1.6698  EPtot      =         1.2787
 BOND   =         0.8592  ANGLE   =         0.9540  DIHED      =         0.0000
 1-4 NB =         0.0000  1-4 EEL =         0.0000  VDWAALS    =         0.0000
 EELEC  =         0.0088  EHBOND  =         0.0000  RESTRAINT  =         0.0000
 DV/DL  =         0.0272
 ------------------------------------------------------------------------------

      DV/DL, AVERAGES OVER 1000000 STEPS

 NSTEP =  1000000   TIME(PS) =    1000.000  TEMP(K) =   112.04  PRESS =     0.0
 Etot   =         0.0000  EKtot   =         0.0000  EPtot      =        85.4590
 BOND   =         0.0000  ANGLE   =        -0.0000  DIHED      =         0.0000
 1-4 NB =         0.0000  1-4 EEL =         0.0000  VDWAALS    =         0.0003
 EELEC  =        85.4587  EHBOND  =         0.0000  RESTRAINT  =         0.0000
 DV/DL  =        85.4590
 ------------------------------------------------------------------------------
